download/pglib-opf-master/api/pglib_opf_case179_goc__api.m
%%%%%%%%%%%%%%%%%%%%%%%%%%%%%%%%%%%%%%%%%%%%%%%%%%%%%%%%%%%%%%%%%%%%%%%%%%%
%%%%                                                                  %%%%%
%%%%    IEEE PES Power Grid Library - Optimal Power Flow - v19.05     %%%%%
%%%%          (https://github.com/power-grid-lib/pglib-opf)           %%%%%
%%%%             Benchmark Group - Active Power Increase              %%%%%
%%%%                         08 - May - 2019                          %%%%%
%%%%                                                                  %%%%%
%%%%%%%%%%%%%%%%%%%%%%%%%%%%%%%%%%%%%%%%%%%%%%%%%%%%%%%%%%%%%%%%%%%%%%%%%%%
function mpc = pglib_opf_case179_goc__api
mpc.version = '2';
mpc.baseMVA = 100.0;

%% bus data
%	bus_i	type	Pd	Qd	Gs	Bs	area	Vm	Va	baseKV	zone	Vmax	Vmin
mpc.bus = [
	2	 1	 926.77	 -54.77	 0.0	 0.0	 1	    1.00300	    0.00000	 1.0	 1	    1.10800	    0.89800;
	3	 1	 0.0	 0.0	 0.0	 0.0	 1	    1.00300	    0.00000	 1.0	 1	    1.10800	    0.89800;
	4	 2	 46.71	 0.00	 0.0	 0.0	 1	    1.00300	    0.00000	 1.0	 1	    1.10800	    0.89800;
	5	 1	 1271.04	 -122.37	 0.0	 0.0	 1	    1.00300	    0.00000	 1.0	 1	    1.10800	    0.89800;
	6	 2	 48.57	 0.00	 0.0	 0.0	 1	    1.00300	    0.00000	 1.0	 1	    1.10800	    0.89800;
	7	 1	 0.0	 0.0	 0.0	 -113.0	 1	    1.00300	    0.00000	 1.0	 1	    1.10800	    0.89800;
	8	 1	 113.45	 -54.21	 0.0	 -155.0	 1	    1.00300	    0.00000	 1.0	 1	    1.10800	    0.89800;
	9	 2	 50.00	 0.00	 0.0	 0.0	 1	    1.00300	    0.00000	 1.0	 1	    1.10800	    0.89800;
	10	 1	 171.04	 22.91	 0.0	 0.0	 1	    1.00300	    0.00000	 1.0	 1	    1.10800	    0.89800;
	11	 2	 47.87	 0.00	 0.0	 0.0	 1	    1.00300	    0.00000	 1.0	 1	    1.10800	    0.89800;
	12	 1	 105.15	 65.76	 0.0	 -190.0	 2	    1.00300	    0.00000	 1.0	 1	    1.10800	    0.89800;
	13	 2	 48.55	 0.00	 0.0	 0.0	 2	    1.00300	    0.00000	 1.0	 1	    1.10800	    0.89800;
	14	 1	 0.0	 0.0	 0.0	 -391.0	 2	    1.00300	    0.00000	 1.0	 1	    1.10800	    0.89800;
	15	 2	 46.55	 0.00	 0.0	 0.0	 2	    1.00300	    0.00000	 1.0	 1	    1.10800	    0.89800;
	16	 1	 1103.28	 215.20	 0.0	 -146.0	 2	    1.00300	    0.00000	 1.0	 1	    1.10800	    0.89800;
	17	 1	 1165.64	 4.79	 0.0	 390.0	 1	    1.00300	    0.00000	 1.0	 1	    1.10800	    0.89800;
	18	 2	 51.79	 0.00	 0.0	 0.0	 1	    1.00300	    0.00000	 1.0	 1	    1.10800	    0.89800;
	19	 1	 327.45	 -64.08	 0.0	 -427.0	 2	    1.00300	    0.00000	 1.0	 1	    1.10800	    0.89800;
	20	 1	 0.0	 0.0	 0.0	 0.0	 2	    1.00300	    0.00000	 1.0	 1	    1.10800	    0.89800;
	21	 1	 0.0	 0.0	 0.0	 0.0	 2	    1.00300	    0.00000	 1.0	 1	    1.10800	    0.89800;
	22	 1	 0.0	 0.0	 0.0	 0.0	 2	    1.00300	    0.00000	 1.0	 1	    1.10800	    0.89800;
	23	 1	 0.0	 0.0	 0.0	 0.0	 2	    1.00300	    0.00000	 1.0	 1	    1.10800	    0.89800;
	24	 1	 0.0	 0.0	 0.0	 0.0	 2	    1.00300	    0.00000	 1.0	 1	    1.10800	    0.89800;
	25	 1	 0.0	 0.0	 0.0	 0.0	 2	    1.00300	    0.00000	 1.0	 1	    1.10800	    0.89800;
	26	 1	 0.0	 0.0	 0.0	 0.0	 2	    1.00300	    0.00000	 1.0	 1	    1.10800	    0.89800;
	27	 1	 0.0	 0.0	 0.0	 0.0	 2	    1.00300	    0.00000	 1.0	 1	    1.10800	    0.89800;
	28	 1	 0.0	 0.0	 0.0	 0.0	 1	    1.00300	    0.00000	 1.0	 1	    1.10800	    0.89800;
	29	 1	 0.0	 0.0	 0.0	 0.0	 1	    1.00300	    0.00000	 1.0	 1	    1.10800	    0.89800;
	30	 2	 49.30	 0.00	 0.0	 0.0	 1	    1.00300	    0.00000	 1.0	 1	    1.10800	    0.89800;
	31	 1	 6031.60	 1052.35	 0.0	 0.0	 1	    1.00300	    0.00000	 1.0	 1	    1.10800	    0.89800;
	32	 1	 0.0	 0.0	 0.0	 0.0	 1	    1.00300	    0.00000	 1.0	 1	    1.10800	    0.89800;
	33	 1	 0.0	 0.0	 0.0	 0.0	 1	    1.00300	    0.00000	 1.0	 1	    1.10800	    0.89800;
	34	 1	 4295.01	 703.18	 0.0	 0.0	 1	    1.00300	    0.00000	 1.0	 1	    1.10800	    0.89800;
	35	 2	 45.09	 0.00	 0.0	 0.0	 1	    1.00300	    0.00000	 1.0	 1	    1.10800	    0.89800;
	36	 2	 51.16	 0.00	 0.0	 0.0	 1	    1.00300	    0.00000	 1.0	 1	    1.10800	    0.89800;
	37	 1	 -843.68	 1045.02	 0.0	 912.0	 2	    1.00300	    0.00000	 1.0	 1	    1.10800	    0.89800;
	38	 1	 0.0	 0.0	 0.0	 0.0	 2	    1.00300	    0.00000	 1.0	 1	    1.10800	    0.89800;
	39	 1	 0.0	 0.0	 0.0	 0.0	 2	    1.00300	    0.00000	 1.0	 1	    1.10800	    0.89800;
	40	 2	 51.45	 0.00	 0.0	 0.0	 2	    1.00300	    0.00000	 1.0	 1	    1.10800	    0.89800;
	41	 1	 177.14	 28.00	 0.0	 0.0	 2	    1.00300	    0.00000	 1.0	 1	    1.10800	    0.89800;
	42	 1	 0.0	 0.0	 0.0	 0.0	 2	    1.00300	    0.00000	 1.0	 1	    1.10800	    0.89800;
	43	 2	 49.01	 0.00	 0.0	 0.0	 2	    1.00300	    0.00000	 1.0	 1	    1.10800	    0.89800;
	44	 1	 2787.51	 902.50	 0.0	 430.0	 1	    1.00300	    0.00000	 1.0	 1	    1.10800	    0.89800;
	45	 2	 52.83	 0.00	 0.0	 0.0	 1	    1.00300	    0.00000	 1.0	 1	    1.10800	    0.89800;
	46	 1	 -35.89	 -17.32	 0.0	 0.0	 2	    1.00300	    0.00000	 1.0	 1	    1.10800	    0.89800;
	47	 2	 53.25	 0.00	 0.0	 0.0	 2	    1.00300	    0.00000	 1.0	 1	    1.10800	    0.89800;
	48	 1	 139.70	 24.01	 0.0	 0.0	 2	    1.00300	    0.00000	 1.0	 1	    1.10800	    0.89800;
	49	 1	 0.0	 0.0	 0.0	 -80.0	 2	    1.00300	    0.00000	 1.0	 1	    1.10800	    0.89800;
	50	 1	 437.60	 62.09	 0.0	 0.0	 2	    1.00300	    0.00000	 1.0	 1	    1.10800	    0.89800;
	51	 1	 115.98	 -58.77	 0.0	 0.0	 2	    1.00300	    0.00000	 1.0	 1	    1.10800	    0.89800;
	52	 1	 0.0	 0.0	 0.0	 0.0	 2	    1.00300	    0.00000	 1.0	 1	    1.10800	    0.89800;
	53	 1	 0.0	 0.0	 0.0	 0.0	 2	    1.00300	    0.00000	 1.0	 1	    1.10800	    0.89800;
	54	 1	 188.08	 29.03	 0.0	 0.0	 2	    1.00300	    0.00000	 1.0	 1	    1.10800	    0.89800;
	55	 1	 1084.77	 126.16	 0.0	 0.0	 2	    1.00300	    0.00000	 1.0	 1	    1.10800	    0.89800;
	56	 1	 0.0	 0.0	 0.0	 0.0	 2	    1.00300	    0.00000	 1.0	 1	    1.10800	    0.89800;
	57	 1	 157.80	 24.03	 0.0	 0.0	 2	    1.00300	    0.00000	 1.0	 1	    1.10800	    0.89800;
	58	 1	 150.94	 25.47	 0.0	 0.0	 2	    1.00300	    0.00000	 1.0	 1	    1.10800	    0.89800;
	59	 1	 480.82	 -6.57	 0.0	 0.0	 2	    1.00300	    0.00000	 1.0	 1	    1.10800	    0.89800;
	60	 1	 -1459.73	 1687.42	 0.0	 2146.0	 2	    1.00300	    0.00000	 1.0	 1	    1.10800	    0.89800;
	61	 1	 471.15	 75.27	 0.0	 0.0	 2	    1.00300	    0.00000	 1.0	 1	    1.10800	    0.89800;
	62	 1	 243.69	 18.56	 0.0	 0.0	 2	    1.00300	    0.00000	 1.0	 1	    1.10800	    0.89800;
	63	 1	 -69.23	 30.32	 0.0	 -108.0	 2	    1.00300	    0.00000	 1.0	 1	    1.10800	    0.89800;
	64	 1	 0.0	 0.0	 0.0	 0.0	 2	    1.00300	    0.00000	 1.0	 1	    1.10800	    0.89800;
	65	 2	 46.97	 0.00	 0.0	 0.0	 1	    1.00300	    0.00000	 1.0	 1	    1.10800	    0.89800;
	66	 1	 1965.46	 298.97	 0.0	 0.0	 1	    1.00300	    0.00000	 1.0	 1	    1.10800	    0.89800;
	67	 1	 199.24	 31.52	 0.0	 0.0	 1	    1.00300	    0.00000	 1.0	 1	    1.10800	    0.89800;
	68	 1	 -35.37	 174.17	 0.0	 576.85	 1	    1.00300	    0.00000	 1.0	 1	    1.10800	    0.89800;
	69	 1	 -23.29	 20.73	 0.0	 0.0	 1	    1.00300	    0.00000	 1.0	 1	    1.10800	    0.89800;
	70	 2	 51.91	 0.00	 0.0	 0.0	 1	    1.00300	    0.00000	 1.0	 1	    1.10800	    0.89800;
	71	 1	 3771.87	 1816.85	 0.0	 792.0	 1	    1.00300	    0.00000	 1.0	 1	    1.10800	    0.89800;
	72	 1	 0.0	 0.0	 0.0	 462.0	 1	    1.00300	    0.00000	 1.0	 1	    1.10800	    0.89800;
	73	 1	 -781.91	 -53.83	 0.0	 0.0	 1	    1.00300	    0.00000	 1.0	 1	    1.10800	    0.89800;
	74	 1	 0.0	 0.0	 0.0	 0.0	 1	    1.00300	    0.00000	 1.0	 1	    1.10800	    0.89800;
	75	 1	 3104.34	 413.70	 0.0	 0.0	 1	    1.00300	    0.00000	 1.0	 1	    1.10800	    0.89800;
	76	 1	 4106.12	 1164.73	 0.0	 1019.35	 1	    1.00300	    0.00000	 1.0	 1	    1.10800	    0.89800;
	77	 3	 54.24	 0.00	 0.0	 0.0	 1	    1.00300	    0.00000	 1.0	 1	    1.10800	    0.89800;
	78	 1	 4519.99	 538.10	 0.0	 550.0	 1	    1.00300	    0.00000	 1.0	 1	    1.10800	    0.89800;
	79	 2	 53.91	 0.00	 0.0	 0.0	 1	    1.00300	    0.00000	 1.0	 1	    1.10800	    0.89800;
	80	 1	 5811.70	 396.38	 0.0	 1200.0	 1	    1.00300	    0.00000	 1.0	 1	    1.10800	    0.89800;
	81	 1	 0.0	 0.0	 0.0	 -220.0	 1	    1.00300	    0.00000	 1.0	 1	    1.10800	    0.89800;
	82	 1	 -30.36	 -92.62	 0.0	 -674.0	 1	    1.00300	    0.00000	 1.0	 1	    1.10800	    0.89800;
	83	 1	 -185.65	 -127.12	 0.0	 -110.0	 1	    1.00300	    0.00000	 1.0	 1	    1.10800	    0.89800;
	84	 1	 0.0	 0.0	 0.0	 -220.0	 1	    1.00300	    0.00000	 1.0	 1	    1.10800	    0.89800;
	85	 1	 307.42	 -452.74	 0.0	 -870.0	 1	    1.00300	    0.00000	 1.0	 1	    1.10800	    0.89800;
	86	 1	 0.0	 0.0	 0.0	 0.0	 1	    1.00300	    0.00000	 1.0	 1	    1.10800	    0.89800;
	87	 1	 0.0	 0.0	 0.0	 0.0	 1	    1.00300	    0.00000	 1.0	 1	    1.10800	    0.89800;
	88	 1	 0.0	 0.0	 0.0	 0.0	 1	    1.00300	    0.00000	 1.0	 1	    1.10800	    0.89800;
	89	 1	 0.0	 0.0	 0.0	 0.0	 1	    1.00300	    0.00000	 1.0	 1	    1.10800	    0.89800;
	90	 1	 0.0	 0.0	 0.0	 0.0	 1	    1.00300	    0.00000	 1.0	 1	    1.10800	    0.89800;
	91	 1	 0.0	 0.0	 0.0	 0.0	 1	    1.00300	    0.00000	 1.0	 1	    1.10800	    0.89800;
	92	 1	 0.0	 0.0	 0.0	 0.0	 1	    1.00300	    0.00000	 1.0	 1	    1.10800	    0.89800;
	93	 1	 0.0	 0.0	 0.0	 0.0	 1	    1.00300	    0.00000	 1.0	 1	    1.10800	    0.89800;
	94	 1	 0.0	 0.0	 0.0	 0.0	 1	    1.00300	    0.00000	 1.0	 1	    1.10800	    0.89800;
	95	 1	 0.0	 0.0	 0.0	 0.0	 1	    1.00300	    0.00000	 1.0	 1	    1.10800	    0.89800;
	96	 1	 0.0	 0.0	 0.0	 0.0	 1	    1.00300	    0.00000	 1.0	 1	    1.10800	    0.89800;
	97	 1	 0.0	 0.0	 0.0	 0.0	 1	    1.00300	    0.00000	 1.0	 1	    1.10800	    0.89800;
	98	 1	 0.0	 0.0	 0.0	 0.0	 1	    1.00300	    0.00000	 1.0	 1	    1.10800	    0.89800;
	99	 1	 0.0	 0.0	 0.0	 0.0	 1	    1.00300	    0.00000	 1.0	 1	    1.10800	    0.89800;
	100	 1	 -19.81	 21.24	 0.0	 0.0	 3	    1.00300	    0.00000	 1.0	 1	    1.10800	    0.89800;
	101	 1	 107.66	 -82.50	 0.0	 0.0	 3	    1.00300	    0.00000	 1.0	 1	    1.10800	    0.89800;
	102	 1	 60.28	 26.25	 0.0	 0.0	 2	    1.00300	    0.00000	 1.0	 1	    1.10800	    0.89800;
	103	 2	 54.62	 0.00	 0.0	 0.0	 2	    1.00300	    0.00000	 1.0	 1	    1.10800	    0.89800;
	104	 1	 167.60	 -8.03	 0.0	 -91.0	 2	    1.00300	    0.00000	 1.0	 1	    1.10800	    0.89800;
	105	 1	 14.28	 -0.11	 0.0	 0.0	 3	    1.00300	    0.00000	 1.0	 1	    1.10800	    0.89800;
	106	 1	 3.78	 0.00	 0.0	 0.0	 3	    1.00300	    0.00000	 1.0	 1	    1.10800	    0.89800;
	107	 1	 333.16	 13.82	 0.0	 0.0	 2	    1.00300	    0.00000	 1.0	 1	    1.10800	    0.89800;
	108	 1	 28.61	 -310.03	 0.0	 -327.0	 2	    1.00300	    0.00000	 1.0	 1	    1.10800	    0.89800;
	109	 1	 1084.11	 35.78	 0.0	 -130.0	 2	    1.00300	    0.00000	 1.0	 1	    1.10800	    0.89800;
	110	 1	 49.11	 21.06	 0.0	 0.0	 2	    1.00300	    0.00000	 1.0	 1	    1.10800	    0.89800;
	111	 1	 -99.30	 63.54	 0.0	 0.0	 3	    1.00300	    0.00000	 1.0	 1	    1.10800	    0.89800;
	112	 2	 54.11	 0.00	 0.0	 0.0	 3	    1.00300	    0.00000	 1.0	 1	    1.10800	    0.89800;
	113	 1	 75.99	 0.00	 0.0	 -128.0	 3	    1.00300	    0.00000	 1.0	 1	    1.10800	    0.89800;
	114	 1	 0.0	 0.0	 0.0	 -91.0	 3	    1.00300	    0.00000	 1.0	 1	    1.10800	    0.89800;
	115	 1	 -0.38	 115.26	 0.0	 -91.0	 3	    1.00300	    0.00000	 1.0	 1	    1.10800	    0.89800;
	116	 2	 51.07	 0.00	 0.0	 0.0	 3	    1.00300	    0.00000	 1.0	 1	    1.10800	    0.89800;
	117	 1	 1112.11	 54.83	 0.0	 -32.0	 3	    1.00300	    0.00000	 1.0	 1	    1.10800	    0.89800;
	118	 2	 54.76	 0.00	 0.0	 0.0	 3	    1.00300	    0.00000	 1.0	 1	    1.10800	    0.89800;
	119	 1	 6726.47	 3818.43	 0.0	 1500.0	 3	    1.00300	    0.00000	 1.0	 1	    1.10800	    0.89800;
	120	 1	 0.0	 0.0	 0.0	 0.0	 3	    1.00300	    0.00000	 1.0	 1	    1.10800	    0.89800;
	121	 1	 0.0	 0.0	 0.0	 0.0	 3	    1.00300	    0.00000	 1.0	 1	    1.10800	    0.89800;
	122	 1	 0.0	 0.0	 0.0	 0.0	 3	    1.00300	    0.00000	 1.0	 1	    1.10800	    0.89800;
	123	 1	 0.0	 0.0	 0.0	 0.0	 3	    1.00300	    0.00000	 1.0	 1	    1.10800	    0.89800;
	124	 1	 0.0	 0.0	 0.0	 0.0	 3	    1.00300	    0.00000	 1.0	 1	    1.10800	    0.89800;
	125	 1	 0.0	 0.0	 0.0	 0.0	 3	    1.00300	    0.00000	 1.0	 1	    1.10800	    0.89800;
	126	 1	 0.0	 0.0	 0.0	 0.0	 3	    1.00300	    0.00000	 1.0	 1	    1.10800	    0.89800;
	127	 1	 0.0	 0.0	 0.0	 0.0	 3	    1.00300	    0.00000	 1.0	 1	    1.10800	    0.89800;
	128	 1	 0.0	 0.0	 0.0	 0.0	 3	    1.00300	    0.00000	 1.0	 1	    1.10800	    0.89800;
	129	 1	 0.0	 0.0	 0.0	 0.0	 3	    1.00300	    0.00000	 1.0	 1	    1.10800	    0.89800;
	130	 1	 0.0	 0.0	 0.0	 0.0	 3	    1.00300	    0.00000	 1.0	 1	    1.10800	    0.89800;
	131	 1	 0.0	 0.0	 0.0	 0.0	 3	    1.00300	    0.00000	 1.0	 1	    1.10800	    0.89800;
	132	 1	 0.0	 0.0	 0.0	 0.0	 2	    1.00300	    0.00000	 1.0	 1	    1.10800	    0.89800;
	133	 1	 0.0	 0.0	 0.0	 0.0	 2	    1.00300	    0.00000	 1.0	 1	    1.10800	    0.89800;
	134	 1	 0.0	 0.0	 0.0	 0.0	 2	    1.00300	    0.00000	 1.0	 1	    1.10800	    0.89800;
	135	 1	 0.0	 0.0	 0.0	 0.0	 2	    1.00300	    0.00000	 1.0	 1	    1.10800	    0.89800;
	136	 1	 1052.62	 17.91	 0.0	 0.0	 2	    1.00300	    0.00000	 1.0	 1	    1.10800	    0.89800;
	137	 1	 241.78	 17.51	 0.0	 0.0	 2	    1.00300	    0.00000	 1.0	 1	    1.10800	    0.89800;
	138	 2	 46.32	 0.00	 0.0	 0.0	 2	    1.00300	    0.00000	 1.0	 1	    1.10800	    0.89800;
	139	 1	 471.17	 -10.81	 0.0	 -319.0	 2	    1.00300	    0.00000	 1.0	 1	    1.10800	    0.89800;
	140	 2	 48.52	 0.00	 0.0	 0.0	 2	    1.00300	    0.00000	 1.0	 1	    1.10800	    0.89800;
	141	 1	 4391.69	 609.69	 0.0	 0.0	 2	    1.00300	    0.00000	 1.0	 1	    1.10800	    0.89800;
	142	 1	 107.93	 -26.18	 0.0	 0.0	 2	    1.00300	    0.00000	 1.0	 1	    1.10800	    0.89800;
	143	 1	 442.55	 60.86	 0.0	 0.0	 2	    1.00300	    0.00000	 1.0	 1	    1.10800	    0.89800;
	144	 2	 45.88	 0.00	 0.0	 0.0	 2	    1.00300	    0.00000	 1.0	 1	    1.10800	    0.89800;
	145	 1	 3911.14	 1238.88	 0.0	 400.0	 2	    1.00300	    0.00000	 1.0	 1	    1.10800	    0.89800;
	146	 1	 0.0	 0.0	 0.0	 0.0	 2	    1.00300	    0.00000	 1.0	 1	    1.10800	    0.89800;
	147	 1	 0.0	 0.0	 0.0	 -196.0	 2	    1.00300	    0.00000	 1.0	 1	    1.10800	    0.89800;
	148	 2	 53.68	 0.00	 0.0	 0.0	 2	    1.00300	    0.00000	 1.0	 1	    1.10800	    0.89800;
	149	 2	 49.94	 0.00	 0.0	 0.0	 2	    1.00300	    0.00000	 1.0	 1	    1.10800	    0.89800;
	150	 1	 4007.36	 75.65	 0.0	 0.0	 2	    1.00300	    0.00000	 1.0	 1	    1.10800	    0.89800;
	151	 1	 1419.40	 78.48	 0.0	 0.0	 2	    1.00300	    0.00000	 1.0	 1	    1.10800	    0.89800;
	152	 1	 485.22	 45.01	 0.0	 0.0	 2	    1.00300	    0.00000	 1.0	 1	    1.10800	    0.89800;
	153	 1	 0.0	 0.0	 0.0	 0.0	 2	    1.00300	    0.00000	 1.0	 1	    1.10800	    0.89800;
	154	 1	 511.38	 -10.66	 0.0	 -190.0	 2	    1.00300	    0.00000	 1.0	 1	    1.10800	    0.89800;
	155	 1	 533.57	 74.94	 0.0	 -60.0	 1	    1.00300	    0.00000	 1.0	 1	    1.10800	    0.89800;
	156	 1	 42.92	 12.04	 0.0	 0.0	 1	    1.00300	    0.00000	 1.0	 1	    1.10800	    0.89800;
	157	 1	 79.39	 -8.29	 0.0	 0.0	 1	    1.00300	    0.00000	 1.0	 1	    1.10800	    0.89800;
	158	 1	 134.55	 41.07	 0.0	 -220.0	 1	    1.00300	    0.00000	 1.0	 1	    1.10800	    0.89800;
	159	 2	 53.70	 0.00	 0.0	 0.0	 1	    1.00300	    0.00000	 1.0	 1	    1.10800	    0.89800;
	160	 1	 -29.29	 11.72	 0.0	 0.0	 1	    1.00300	    0.00000	 1.0	 1	    1.10800	    0.89800;
	161	 1	 349.40	 104.12	 0.0	 0.0	 1	    1.00300	    0.00000	 1.0	 1	    1.10800	    0.89800;
	162	 2	 47.79	 0.00	 0.0	 0.0	 1	    1.00300	    0.00000	 1.0	 1	    1.10800	    0.89800;
	163	 1	 0.0	 0.0	 0.0	 0.0	 1	    1.00300	    0.00000	 1.0	 1	    1.10800	    0.89800;
	164	 1	 38.20	 12.06	 0.0	 -18.0	 1	    1.00300	    0.00000	 1.0	 1	    1.10800	    0.89800;
	165	 1	 186.07	 70.00	 0.0	 0.0	 1	    1.00300	    0.00000	 1.0	 1	    1.10800	    0.89800;
	166	 1	 171.78	 -39.78	 0.0	 -50.0	 1	    1.00300	    0.00000	 1.0	 1	    1.10800	    0.89800;
	167	 1	 242.85	 75.76	 0.0	 0.0	 1	    1.00300	    0.00000	 1.0	 1	    1.10800	    0.89800;
	168	 1	 0.0	 0.0	 0.0	 0.0	 3	    1.00300	    0.00000	 1.0	 1	    1.10800	    0.89800;
	169	 1	 0.0	 0.0	 0.0	 0.0	 3	    1.00300	    0.00000	 1.0	 1	    1.10800	    0.89800;
	170	 1	 0.0	 0.0	 0.0	 0.0	 3	    1.00300	    0.00000	 1.0	 1	    1.10800	    0.89800;
	171	 1	 0.0	 0.0	 0.0	 0.0	 3	    1.00300	    0.00000	 1.0	 1	    1.10800	    0.89800;
	172	 1	 0.0	 0.0	 0.0	 0.0	 3	    1.00300	    0.00000	 1.0	 1	    1.10800	    0.89800;
	173	 1	 0.0	 0.0	 0.0	 0.0	 3	    1.00300	    0.00000	 1.0	 1	    1.10800	    0.89800;
	174	 1	 0.0	 0.0	 0.0	 0.0	 2	    1.00300	    0.00000	 1.0	 1	    1.10800	    0.89800;
	175	 1	 0.0	 0.0	 0.0	 0.0	 2	    1.00300	    0.00000	 1.0	 1	    1.10800	    0.89800;
	176	 1	 0.0	 0.0	 0.0	 0.0	 2	    1.00300	    0.00000	 1.0	 1	    1.10800	    0.89800;
	177	 1	 0.0	 0.0	 0.0	 0.0	 2	    1.00300	    0.00000	 1.0	 1	    1.10800	    0.89800;
	178	 1	 0.0	 0.0	 0.0	 0.0	 2	    1.00300	    0.00000	 1.0	 1	    1.10800	    0.89800;
	179	 1	 0.0	 0.0	 0.0	 0.0	 2	    1.00300	    0.00000	 1.0	 1	    1.10800	    0.89800;
	180	 1	 0.0	 0.0	 0.0	 -220.0	 1	    1.00300	    0.00000	 1.0	 1	    1.10800	    0.89800;
];

%% generator data
%	bus	Pg	Qg	Qmax	Qmin	Vg	mBase	status	Pmax	Pmin	Pc1	Pc2	Qc1min	Qc1max	Qc2min	Qc2max	ramp_agc	ramp_10	ramp_30	ramp_q	apf
mpc.gen = [
	4	 826.2625	 0.0	 750.0	 -750.0	 1.003	 1600.0	 1	 1500	 152.525	 0.0	 0.0	 0.0	 0.0	 0.0	 0.0	 0.0	 0.0	 0.0	 0.0	 1683.1216; % COW
	6	 676.27	 0.0	 619.0	 -619.0	 1.003	 2100.0	 1	 1237	 115.54	 0.0	 0.0	 0.0	 0.0	 0.0	 0.0	 0.0	 0.0	 0.0	 0.0	 1938.1774; % COW
	9	 801.335	 50.985	 701.97	 -600.0	 1.003	 4300.0	 1	 1199	 403.67	 0.0	 0.0	 0.0	 0.0	 0.0	 0.0	 0.0	 0.0	 0.0	 0.0	 4498.2554; % COW
	11	 910.065	 -17.94	 899.03	 -934.91	 1.003	 4100.0	 1	 1396	 424.13	 0.0	 0.0	 0.0	 0.0	 0.0	 0.0	 0.0	 0.0	 0.0	 0.0	 3956.9636; % COW
	13	 771.5275	 32.605	 697.21	 -632.0	 1.003	 3400.0	 1	 1264	 279.055	 0.0	 0.0	 0.0	 0.0	 0.0	 0.0	 0.0	 0.0	 0.0	 0.0	 3299.9353; % COW
	15	 1794.33	 1.14	 1405.28	 -1403.0	 1.003	 5300.0	 1	 2806	 782.66	 0.0	 0.0	 0.0	 0.0	 0.0	 0.0	 0.0	 0.0	 0.0	 0.0	 5393.5254; % COW
	18	 535.1025	 0.0	 401.0	 -401.0	 1.003	 2000.0	 1	 802	 268.205	 0.0	 0.0	 0.0	 0.0	 0.0	 0.0	 0.0	 0.0	 0.0	 0.0	 2074.4534; % COW
	30	 4307.6925	 11.185	 4070.83	 -4048.46	 1.003	 8900.0	 1	 7101	 1514.385	 0.0	 0.0	 0.0	 0.0	 0.0	 0.0	 0.0	 0.0	 0.0	 0.0	 9757.0576; % COW
	35	 2666.82	 1136.34	 5544.98	 -3272.3	 1.003	 9000.0	 1	 4609	 724.64	 0.0	 0.0	 0.0	 0.0	 0.0	 0.0	 0.0	 0.0	 0.0	 0.0	 8718.1563; % NUC
	36	 845.7625	 30.46	 652.92	 -592.0	 1.003	 3300.0	 1	 1184	 507.525	 0.0	 0.0	 0.0	 0.0	 0.0	 0.0	 0.0	 0.0	 0.0	 0.0	 3493.625; % COW
	40	 389.7125	 0.0	 385.0	 -385.0	 1.003	 400.0	 1	 769	 10.425	 0.0	 0.0	 0.0	 0.0	 0.0	 0.0	 0.0	 0.0	 0.0	 0.0	 362.5961; % NG
	43	 515.7325	 0.0	 484.0	 -484.0	 1.003	 650.0	 1	 968	 63.465	 0.0	 0.0	 0.0	 0.0	 0.0	 0.0	 0.0	 0.0	 0.0	 0.0	 673.957; % NG
	45	 1582.7125	 0.0	 1460.0	 -1460.0	 1.003	 3600.0	 1	 2919	 246.425	 0.0	 0.0	 0.0	 0.0	 0.0	 0.0	 0.0	 0.0	 0.0	 0.0	 3528.4009; % NUC
	47	 108.755	 0.69	 100.88	 -99.5	 1.003	 220.0	 1	 182	 35.51	 0.0	 0.0	 0.0	 0.0	 0.0	 0.0	 0.0	 0.0	 0.0	 0.0	 233.6808; % NG
	65	 1257.9275	 198.28	 1553.56	 -1157.0	 1.003	 5800.0	 1	 2313	 202.855	 0.0	 0.0	 0.0	 0.0	 0.0	 0.0	 0.0	 0.0	 0.0	 0.0	 5459.918; % COW
	70	 144.5525	 -79.99	 642.85	 -802.83	 1.003	 2600.0	 1	 238	 51.105	 0.0	 0.0	 0.0	 0.0	 0.0	 0.0	 0.0	 0.0	 0.0	 0.0	 2377.3799; % NG
	77	 4464.27	 0.0	 3717.6	 -3717.6	 1.003	 10400.0	 1	 7108	 1820.54	 0.0	 0.0	 0.0	 0.0	 0.0	 0.0	 0.0	 0.0	 0.0	 0.0	 11165.0508; % COW
	79	 6756.5525	 0.0	 6132.0	 -6132.0	 1.003	 20000.0	 1	 12263	 1250.105	 0.0	 0.0	 0.0	 0.0	 0.0	 0.0	 0.0	 0.0	 0.0	 0.0	 18208.2246; % COW
	103	 1386.795	 0.0	 1358.0	 -1358.0	 1.003	 1500.0	 1	 2716	 57.59	 0.0	 0.0	 0.0	 0.0	 0.0	 0.0	 0.0	 0.0	 0.0	 0.0	 1359.8911; % COW
	112	 795.78	 0.0	 694.0	 -694.0	 1.003	 2100.0	 1	 1387	 204.56	 0.0	 0.0	 0.0	 0.0	 0.0	 0.0	 0.0	 0.0	 0.0	 0.0	 2247.1069; % COW
	116	 931.04	 0.0	 853.0	 -853.0	 1.003	 1200.0	 1	 1706	 156.08	 0.0	 0.0	 0.0	 0.0	 0.0	 0.0	 0.0	 0.0	 0.0	 0.0	 1298.6926; % COW
	118	 3722.0375	 0.0	 4351.2	 -4351.2	 1.003	 6900.0	 1	 6655	 789.075	 0.0	 0.0	 0.0	 0.0	 0.0	 0.0	 0.0	 0.0	 0.0	 0.0	 7386.77; % COW
	138	 730.6425	 0.0	 653.0	 -653.0	 1.003	 2000.0	 1	 1305	 156.285	 0.0	 0.0	 0.0	 0.0	 0.0	 0.0	 0.0	 0.0	 0.0	 0.0	 2043.6079; % COW
	140	 2846.0725	 0.0	 2648.0	 -2648.0	 1.003	 6400.0	 1	 5295	 397.145	 0.0	 0.0	 0.0	 0.0	 0.0	 0.0	 0.0	 0.0	 0.0	 0.0	 6145.2231; % COW
	144	 3097.5825	 0.0	 2948.0	 -2948.0	 1.003	 3400.0	 1	 5896	 299.165	 0.0	 0.0	 0.0	 0.0	 0.0	 0.0	 0.0	 0.0	 0.0	 0.0	 3135.1221; % COW
	148	 778.4825	 68.775	 746.55	 -609.0	 1.003	 3400.0	 1	 1217	 339.965	 0.0	 0.0	 0.0	 0.0	 0.0	 0.0	 0.0	 0.0	 0.0	 0.0	 3402.5374; % COW
	149	 1733.6925	 0.0	 1502.0	 -1502.0	 1.003	 4400.0	 1	 3003	 464.385	 0.0	 0.0	 0.0	 0.0	 0.0	 0.0	 0.0	 0.0	 0.0	 0.0	 4251.854; % COW
	159	 873.28	 697.35	 10604.58	 -9209.88	 1.003	 3300.0	 1	 1274	 472.56	 0.0	 0.0	 0.0	 0.0	 0.0	 0.0	 0.0	 0.0	 0.0	 0.0	 3483.0479; % COW
	162	 322.8975	 -587.665	 9359.49	 -10534.82	 1.003	 900.0	 1	 564	 81.795	 0.0	 0.0	 0.0	 0.0	 0.0	 0.0	 0.0	 0.0	 0.0	 0.0	 839.6633; % COW
];

%% generator cost data
%	2	startup	shutdown	n	c(n-1)	...	c0
mpc.gencost = [
	2	 0.0	 0.0	 3	   0.000000	  27.125018	   0.000000; % COW
	2	 0.0	 0.0	 3	   0.000000	  25.767823	   0.000000; % COW
	2	 0.0	 0.0	 3	   0.000000	  33.458506	   0.000000; % COW
	2	 0.0	 0.0	 3	   0.000000	   6.580729	   0.000000; % COW
	2	 0.0	 0.0	 3	   0.000000	  31.784817	   0.000000; % COW
	2	 0.0	 0.0	 3	   0.000000	  27.844304	   0.000000; % COW
	2	 0.0	 0.0	 3	   0.000000	  41.899242	   0.000000; % COW
	2	 0.0	 0.0	 3	   0.000000	  26.887510	   0.000000; % COW
	2	 0.0	 0.0	 3	   0.000000	  26.647901	   0.000000; % NUC
	2	 0.0	 0.0	 3	   0.000000	  23.718395	   0.000000; % COW
	2	 0.0	 0.0	 3	   0.000000	  49.354886	   0.000000; % NG
	2	 0.0	 0.0	 3	   0.000000	  35.232014	   0.000000; % NG
	2	 0.0	 0.0	 3	   0.000000	  21.891639	   0.000000; % NUC
	2	 0.0	 0.0	 3	   0.000000	  25.383461	   0.000000; % NG
	2	 0.0	 0.0	 3	   0.000000	   8.035714	   0.000000; % COW
	2	 0.0	 0.0	 3	   0.000000	  33.912130	   0.000000; % NG
	2	 0.0	 0.0	 3	   0.000000	  25.457586	   0.000000; % COW
	2	 0.0	 0.0	 3	   0.000000	   7.168126	   0.000000; % COW
	2	 0.0	 0.0	 3	   0.000000	   8.487093	   0.000000; % COW
	2	 0.0	 0.0	 3	   0.000000	  19.203903	   0.000000; % COW
	2	 0.0	 0.0	 3	   0.000000	  30.820178	   0.000000; % COW
	2	 0.0	 0.0	 3	   0.000000	 124.672540	   0.000000; % COW
	2	 0.0	 0.0	 3	   0.000000	  28.267849	   0.000000; % COW
	2	 0.0	 0.0	 3	   0.000000	  31.546462	   0.000000; % COW
	2	 0.0	 0.0	 3	   0.000000	  22.349251	   0.000000; % COW
	2	 0.0	 0.0	 3	   0.000000	   7.230771	   0.000000; % COW
	2	 0.0	 0.0	 3	   0.000000	  14.174214	   0.000000; % COW
	2	 0.0	 0.0	 3	   0.000000	   8.614738	   0.000000; % COW
	2	 0.0	 0.0	 3	   0.000000	  49.876052	   0.000000; % COW
];

%% branch data
%	fbus	tbus	r	x	b	rateA	rateB	rateC	ratio	angle	status	angmin	angmax
mpc.branch = [
	2	 3	 0.0	 0.0146	 0.0	 2196.0	 2196.0	 2196.0	 0.0	 0.0	 1	 -30.0	 30.0;
	2	 4	 0.0	 0.0173	 0.0	 1853.0	 1853.0	 1853.0	 0.9545	 0.0	 1	 -30.0	 30.0;
	3	 8	 0.00179	 0.01988	 2.576	 1606.0	 1606.0	 1606.0	 0.0	 0.0	 1	 -30.0	 30.0;
	5	 6	 0.0	 0.01238	 0.0	 2589.0	 2589.0	 2589.0	 0.0	 0.0	 1	 -30.0	 30.0;
	5	 11	 0.0	 0.015	 0.0	 2137.0	 2137.0	 2137.0	 0.0	 0.0	 1	 -30.0	 30.0;
	17	 5	 0.00977	 0.11	 2.0	 291.0	 291.0	 291.0	 0.0	 0.0	 1	 -30.0	 30.0;
	5	 160	 0.00811	 0.1369	 2.4348	 234.0	 234.0	 234.0	 0.0	 0.0	 1	 -30.0	 30.0;
	7	 8	 0.0	 0.011	 0.0	 2914.0	 2914.0	 2914.0	 1.063	 0.0	 1	 -30.0	 30.0;
	7	 8	 0.0	 0.011	 0.0	 2914.0	 2914.0	 2914.0	 1.063	 0.0	 1	 -30.0	 30.0;
	7	 28	 0.0	 0.00408	 0.0	 5501.81	 7856.0	 7856.0	 0.0	 0.0	 1	 -30.0	 30.0;
	8	 9	 0.0	 0.0059	 0.0	 5432.0	 5432.0	 5432.0	 0.0	 0.0	 1	 -30.0	 30.0;
	8	 10	 0.00028	 0.0138	 0.0	 2322.0	 2322.0	 2322.0	 0.0	 0.0	 1	 -30.0	 30.0;
	8	 10	 0.00029	 0.0139	 0.0	 2306.0	 2306.0	 2306.0	 0.0	 0.0	 1	 -30.0	 30.0;
	8	 17	 0.0005	 0.0053	 0.0882	 2202.27	 6021.0	 6021.0	 0.0	 0.0	 1	 -30.0	 30.0;
	163	 8	 0.0048	 0.0436	 0.7078	 731.0	 731.0	 731.0	 0.0	 0.0	 1	 -30.0	 30.0;
	12	 13	 0.0	 0.00666	 0.0	 4813.0	 4813.0	 4813.0	 1.08	 0.0	 1	 -30.0	 30.0;
	12	 20	 0.0	 0.00634	 0.0	 5055.0	 5055.0	 5055.0	 0.0	 0.0	 1	 -30.0	 30.0;
	12	 22	 0.0	 0.01188	 0.0	 2698.0	 2698.0	 2698.0	 0.0	 0.0	 1	 -30.0	 30.0;
	12	 139	 0.0028	 0.0211	 1.0194	 1506.0	 1506.0	 1506.0	 0.0	 0.0	 1	 -30.0	 30.0;
	21	 14	 0.0	 0.00634	 0.0	 5055.0	 5055.0	 5055.0	 0.0	 0.0	 1	 -30.0	 30.0;
	14	 24	 0.0	 0.00826	 0.0	 3880.0	 3880.0	 3880.0	 0.0	 0.0	 1	 -30.0	 30.0;
	14	 26	 0.0	 0.01795	 0.0	 1786.0	 1786.0	 1786.0	 0.0	 0.0	 1	 -30.0	 30.0;
	29	 14	 0.0	 0.00612	 0.0	 5237.0	 5237.0	 5237.0	 0.0	 0.0	 1	 -30.0	 30.0;
	16	 15	 6e-05	 0.00495	 0.0	 6474.0	 6474.0	 6474.0	 1.1061	 0.0	 1	 -30.0	 30.0;
	16	 19	 0.0004	 0.0096	 0.9038	 3336.0	 3336.0	 3336.0	 0.0	 0.0	 1	 -30.0	 30.0;
	16	 19	 0.0004	 0.0096	 0.9038	 3336.0	 3336.0	 3336.0	 0.0	 0.0	 1	 -30.0	 30.0;
	16	 136	 0.00259	 0.02967	 2.153	 1077.0	 1077.0	 1077.0	 0.0	 0.0	 1	 -30.0	 30.0;
	16	 136	 0.00259	 0.02967	 2.153	 1077.0	 1077.0	 1077.0	 0.0	 0.0	 1	 -30.0	 30.0;
	17	 18	 0.0	 0.006	 0.0	 5342.0	 5342.0	 5342.0	 1.0435	 0.0	 1	 -30.0	 30.0;
	23	 19	 0.0	 0.01188	 0.0	 2698.0	 2698.0	 2698.0	 0.0	 0.0	 1	 -30.0	 30.0;
	25	 19	 0.0	 0.00826	 0.0	 3880.0	 3880.0	 3880.0	 0.0	 0.0	 1	 -30.0	 30.0;
	20	 21	 0.00077	 0.01804	 1.39842	 1775.0	 1775.0	 1775.0	 0.0	 0.0	 1	 -30.0	 30.0;
	22	 23	 0.00241	 0.05865	 4.8656	 546.0	 546.0	 546.0	 0.0	 0.0	 1	 -30.0	 30.0;
	24	 25	 0.00179	 0.04244	 3.3922	 755.0	 755.0	 755.0	 0.0	 0.0	 1	 -30.0	 30.0;
	26	 27	 0.00207	 0.04959	 3.9516	 646.0	 646.0	 646.0	 0.0	 0.0	 1	 -30.0	 30.0;
	27	 139	 0.0	 0.01795	 0.0	 1786.0	 1786.0	 1786.0	 0.0	 0.0	 1	 -30.0	 30.0;
	28	 29	 0.00177	 0.04189	 3.3446	 765.0	 765.0	 765.0	 0.0	 0.0	 1	 -30.0	 30.0;
	31	 30	 0.0	 0.0015	 0.0	 21366.0	 21366.0	 21366.0	 1.05	 0.0	 1	 -30.0	 30.0;
	31	 32	 0.0035	 0.07	 4.606	 458.0	 458.0	 458.0	 0.0	 0.0	 1	 -30.0	 30.0;
	31	 80	 0.00083	 0.0239	 3.3	 1341.0	 1341.0	 1341.0	 0.0	 0.0	 1	 -30.0	 30.0;
	32	 33	 0.0	 0.01	 0.0	 3205.0	 3205.0	 3205.0	 1.1	 0.0	 1	 -30.0	 30.0;
	33	 34	 0.002	 0.02	 0.8	 855.66	 1595.0	 1595.0	 0.0	 0.0	 1	 -30.0	 30.0;
	34	 35	 0.0	 0.002	 0.0	 16025.0	 16025.0	 16025.0	 0.0	 0.0	 1	 -30.0	 30.0;
	85	 36	 0.0	 0.0046	 0.0	 6968.0	 6968.0	 6968.0	 0.0	 0.0	 1	 -30.0	 30.0;
	37	 38	 0.00074	 0.01861	 1.40264	 1721.0	 1721.0	 1721.0	 0.0	 0.0	 1	 -30.0	 30.0;
	37	 56	 0.00082	 0.01668	 1.18802	 1920.0	 1920.0	 1920.0	 0.0	 0.0	 1	 -30.0	 30.0;
	37	 64	 0.0	 0.00159	 0.12002	 5755.18	 20157.0	 20157.0	 0.0	 0.0	 1	 -30.0	 30.0;
	37	 64	 0.0	 0.00159	 0.12002	 5757.14	 20157.0	 20157.0	 0.0	 0.0	 1	 -30.0	 30.0;
	38	 48	 0.00013	 0.00693	 0.0	 4624.0	 4624.0	 4624.0	 1.05	 0.0	 1	 -30.0	 30.0;
	39	 40	 0.0005	 0.0238	 0.0	 1347.0	 1347.0	 1347.0	 0.0	 0.0	 1	 -30.0	 30.0;
	39	 46	 0.00221	 0.03346	 0.07338	 892.46	 956.0	 956.0	 0.0	 0.0	 1	 -30.0	 30.0;
	39	 48	 0.0029	 0.038	 0.0824	 841.0	 841.0	 841.0	 0.0	 0.0	 1	 -30.0	 30.0;
	39	 59	 0.00309	 0.04677	 0.1008	 684.0	 684.0	 684.0	 0.0	 0.0	 1	 -30.0	 30.0;
	39	 60	 0.00226	 0.03422	 0.07506	 832.1	 935.0	 935.0	 0.0	 0.0	 1	 -30.0	 30.0;
	55	 41	 0.00047	 0.00723	 0.01624	 754.41	 4424.0	 4424.0	 0.0	 0.0	 1	 -30.0	 30.0;
	41	 58	 0.00035	 0.00536	 0.01204	 822.58	 5967.0	 5967.0	 0.0	 0.0	 1	 -30.0	 30.0;
	42	 43	 0.00058	 0.02535	 0.0	 1264.0	 1264.0	 1264.0	 1.0491	 0.0	 1	 -30.0	 30.0;
	50	 42	 0.0022	 0.03422	 0.07716	 761.15	 935.0	 935.0	 0.0	 0.0	 1	 -30.0	 30.0;
	50	 42	 0.00238	 0.03669	 0.08284	 872.0	 872.0	 872.0	 0.0	 0.0	 1	 -30.0	 30.0;
	57	 42	 0.00201	 0.03074	 0.06886	 768.89	 1041.0	 1041.0	 0.0	 0.0	 1	 -30.0	 30.0;
	42	 58	 0.00281	 0.04296	 0.09648	 745.0	 745.0	 745.0	 0.0	 0.0	 1	 -30.0	 30.0;
	44	 45	 0.0	 0.0052	 0.0	 6164.0	 6164.0	 6164.0	 1.025	 0.0	 1	 -30.0	 30.0;
	44	 160	 0.0018	 0.0245	 0.4392	 1305.0	 1305.0	 1305.0	 0.0	 0.0	 1	 -30.0	 30.0;
	44	 160	 0.0018	 0.0245	 0.4392	 1305.0	 1305.0	 1305.0	 0.0	 0.0	 1	 -30.0	 30.0;
	48	 46	 0.00029	 0.00434	 0.0095	 841.15	 7369.0	 7369.0	 0.0	 0.0	 1	 -30.0	 30.0;
	48	 47	 0.00499	 0.11473	 0.0	 280.0	 280.0	 280.0	 1.0478	 0.0	 1	 -30.0	 30.0;
	49	 48	 0.00026	 0.01386	 0.0	 2312.0	 2312.0	 2312.0	 1.05	 0.0	 1	 -30.0	 30.0;
	48	 55	 0.00229	 0.01583	 0.0306	 855.66	 2004.0	 2004.0	 0.0	 0.0	 1	 -30.0	 30.0;
	48	 55	 0.00229	 0.01583	 0.0306	 905.33	 2004.0	 2004.0	 0.0	 0.0	 1	 -30.0	 30.0;
	48	 59	 0.00141	 0.00967	 0.0194	 772.89	 3280.0	 3280.0	 0.0	 0.0	 1	 -30.0	 30.0;
	48	 59	 0.00141	 0.00967	 0.0194	 912.29	 3280.0	 3280.0	 0.0	 0.0	 1	 -30.0	 30.0;
	48	 59	 0.00161	 0.00971	 0.01928	 763.48	 3257.0	 3257.0	 0.0	 0.0	 1	 -30.0	 30.0;
	48	 59	 0.00161	 0.00971	 0.01928	 911.69	 3257.0	 3257.0	 0.0	 0.0	 1	 -30.0	 30.0;
	48	 60	 0.00027	 0.00393	 0.00918	 837.06	 8136.0	 8136.0	 0.0	 0.0	 1	 -30.0	 30.0;
	48	 60	 0.00027	 0.00393	 0.00918	 783.45	 8136.0	 8136.0	 0.0	 0.0	 1	 -30.0	 30.0;
	48	 60	 0.00027	 0.00393	 0.00918	 804.85	 8136.0	 8136.0	 0.0	 0.0	 1	 -30.0	 30.0;
	48	 62	 0.00138	 0.01116	 0.0247	 758.56	 2851.0	 2851.0	 0.0	 0.0	 1	 -30.0	 30.0;
	48	 62	 0.00138	 0.01116	 0.0247	 759.88	 2851.0	 2851.0	 0.0	 0.0	 1	 -30.0	 30.0;
	64	 49	 0.00083	 0.01884	 1.66668	 1700.0	 1700.0	 1700.0	 0.0	 0.0	 1	 -30.0	 30.0;
	50	 57	 0.00037	 0.00366	 0.0083	 880.09	 8713.0	 8713.0	 0.0	 0.0	 1	 -30.0	 30.0;
	50	 58	 0.00055	 0.00586	 0.01246	 835.5	 5446.0	 5446.0	 0.0	 0.0	 1	 -30.0	 30.0;
	52	 51	 0.00059	 0.01491	 0.0	 2148.0	 2148.0	 2148.0	 1.0017	 0.0	 1	 -30.0	 30.0;
	53	 51	 0.00059	 0.01491	 0.0	 2148.0	 2148.0	 2148.0	 1.0017	 0.0	 1	 -30.0	 30.0;
	54	 51	 0.0003	 0.0133	 0.0	 2410.0	 2410.0	 2410.0	 0.0	 0.0	 1	 -30.0	 30.0;
	54	 51	 0.0003	 0.0134	 0.0	 2392.0	 2392.0	 2392.0	 0.0	 0.0	 1	 -30.0	 30.0;
	52	 63	 0.0107	 0.07905	 0.3667	 402.0	 402.0	 402.0	 0.0	 0.0	 1	 -30.0	 30.0;
	53	 63	 0.0107	 0.07905	 0.3667	 402.0	 402.0	 402.0	 0.0	 0.0	 1	 -30.0	 30.0;
	57	 54	 0.00073	 0.01025	 0.02558	 765.61	 3119.0	 3119.0	 0.0	 0.0	 1	 -30.0	 30.0;
	57	 54	 0.00073	 0.01025	 0.02558	 898.03	 3119.0	 3119.0	 0.0	 0.0	 1	 -30.0	 30.0;
	56	 55	 0.00013	 0.01386	 0.0	 2313.0	 2313.0	 2313.0	 1.0106	 0.0	 1	 -30.0	 30.0;
	56	 55	 0.00013	 0.01386	 0.0	 2313.0	 2313.0	 2313.0	 1.0106	 0.0	 1	 -30.0	 30.0;
	55	 58	 0.00119	 0.01244	 0.02798	 856.67	 2565.0	 2565.0	 0.0	 0.0	 1	 -30.0	 30.0;
	55	 58	 0.00119	 0.01244	 0.02798	 852.17	 2565.0	 2565.0	 0.0	 0.0	 1	 -30.0	 30.0;
	62	 55	 0.00128	 0.00979	 0.0212	 868.54	 3246.0	 3246.0	 0.0	 0.0	 1	 -30.0	 30.0;
	57	 58	 0.0011	 0.01189	 0.02514	 908.69	 2684.0	 2684.0	 0.0	 0.0	 1	 -30.0	 30.0;
	60	 61	 0.0	 0.00115	 0.0	 27869.0	 27869.0	 27869.0	 1.0133	 0.0	 1	 -30.0	 30.0;
	137	 61	 0.0014	 0.0264	 0.102	 848.66	 1213.0	 1213.0	 0.0	 0.0	 1	 -30.0	 30.0;
	150	 61	 0.00065	 0.01187	 0.04672	 913.99	 2696.0	 2696.0	 0.0	 0.0	 1	 -30.0	 30.0;
	150	 61	 0.00065	 0.01187	 0.04672	 773.57	 2696.0	 2696.0	 0.0	 0.0	 1	 -30.0	 30.0;
	64	 63	 0.0002	 0.02338	 0.0	 1371.0	 1371.0	 1371.0	 0.9789	 0.0	 1	 -30.0	 30.0;
	139	 64	 0.00179	 0.02524	 0.53546	 1267.0	 1267.0	 1267.0	 0.0	 0.0	 1	 -30.0	 30.0;
	139	 64	 0.00179	 0.02524	 0.53546	 1267.0	 1267.0	 1267.0	 0.0	 0.0	 1	 -30.0	 30.0;
	142	 64	 0.0002	 0.0041	 0.2962	 5830.69	 7808.0	 7808.0	 0.0	 0.0	 1	 -30.0	 30.0;
	66	 65	 0.0	 0.005	 0.0	 6410.0	 6410.0	 6410.0	 1.09	 0.0	 1	 -30.0	 30.0;
	78	 66	 0.0007	 0.074	 4.87	 434.0	 434.0	 434.0	 0.0	 0.0	 1	 -30.0	 30.0;
	68	 67	 0.00089	 0.0299	 0.0	 1072.0	 1072.0	 1072.0	 0.9873	 0.0	 1	 -30.0	 30.0;
	69	 68	 0.0002	 0.01181	 0.0	 2714.0	 2714.0	 2714.0	 1.0238	 0.0	 1	 -30.0	 30.0;
	69	 68	 9e-05	 0.00735	 0.0	 4361.0	 4361.0	 4361.0	 1.0238	 0.0	 1	 -30.0	 30.0;
	68	 70	 0.0	 0.01034	 0.0	 3100.0	 3100.0	 3100.0	 1.0455	 0.0	 1	 -30.0	 30.0;
	68	 71	 6e-05	 0.00131	 0.00378	 828.29	 24439.0	 24439.0	 0.0	 0.0	 1	 -30.0	 30.0;
	68	 71	 6e-05	 0.00116	 0.00332	 776.56	 27592.0	 27592.0	 0.0	 0.0	 1	 -30.0	 30.0;
	69	 72	 1e-05	 0.0003	 0.01434	 5711.04	 106769.0	 106769.0	 0.0	 0.0	 1	 -30.0	 30.0;
	69	 72	 1e-05	 0.0003	 0.01844	 5829.8	 106769.0	 106769.0	 0.0	 0.0	 1	 -30.0	 30.0;
	69	 76	 0.00023	 0.00451	 0.3332	 5923.31	 7097.0	 7097.0	 0.0	 0.0	 1	 -30.0	 30.0;
	69	 76	 0.0002	 0.00446	 0.305	 6169.99	 7179.0	 7179.0	 0.0	 0.0	 1	 -30.0	 30.0;
	72	 71	 0.0	 0.00221	 0.0	 14502.0	 14502.0	 14502.0	 1.0234	 0.0	 1	 -30.0	 30.0;
	75	 73	 0.00179	 0.01405	 3.68	 2263.0	 2263.0	 2263.0	 0.0	 0.0	 1	 -30.0	 30.0;
	78	 74	 0.00113	 0.02069	 1.85526	 1547.0	 1547.0	 1547.0	 0.0	 0.0	 1	 -30.0	 30.0;
	75	 76	 0.00196	 0.03304	 1.88	 969.0	 969.0	 969.0	 0.0	 0.0	 1	 -30.0	 30.0;
	75	 78	 0.00142	 0.02258	 1.88	 1417.0	 1417.0	 1417.0	 0.0	 0.0	 1	 -30.0	 30.0;
	76	 77	 0.0	 0.00375	 0.0	 8547.0	 8547.0	 8547.0	 1.0977	 0.0	 1	 -30.0	 30.0;
	78	 76	 0.0012	 0.02316	 1.7152	 1382.0	 1382.0	 1382.0	 0.0	 0.0	 1	 -30.0	 30.0;
	78	 76	 0.0003	 0.02	 3.6	 1603.0	 1603.0	 1603.0	 0.0	 0.0	 1	 -30.0	 30.0;
	82	 76	 0.00063	 0.01412	 1.09756	 2268.0	 2268.0	 2268.0	 0.0	 0.0	 1	 -30.0	 30.0;
	82	 76	 0.00109	 0.02408	 1.55542	 1330.0	 1330.0	 1330.0	 0.0	 0.0	 1	 -30.0	 30.0;
	82	 76	 0.00108	 0.02409	 1.55348	 1330.0	 1330.0	 1330.0	 0.0	 0.0	 1	 -30.0	 30.0;
	80	 78	 0.0002	 0.0082	 1.3	 3908.0	 3908.0	 3908.0	 0.0	 0.0	 1	 -30.0	 30.0;
	80	 78	 0.0002	 0.0082	 1.3	 3908.0	 3908.0	 3908.0	 0.0	 0.0	 1	 -30.0	 30.0;
	80	 79	 0.0	 0.0025	 0.0	 12820.0	 12820.0	 12820.0	 1.066	 0.0	 1	 -30.0	 30.0;
	81	 99	 0.00264	 0.05356	 5.29066	 598.0	 598.0	 598.0	 0.0	 0.0	 1	 -30.0	 30.0;
	81	 180	 0.0	 0.02667	 0.0	 1202.0	 1202.0	 1202.0	 0.0	 0.0	 1	 -30.0	 30.0;
	82	 87	 0.00041	 0.00737	 0.72694	 4342.0	 4342.0	 4342.0	 0.0	 0.0	 1	 -30.0	 30.0;
	82	 91	 0.00066	 0.01266	 0.95976	 2529.0	 2529.0	 2529.0	 0.0	 0.0	 1	 -30.0	 30.0;
	82	 95	 0.00066	 0.01266	 0.95976	 2529.0	 2529.0	 2529.0	 0.0	 0.0	 1	 -30.0	 30.0;
	83	 89	 0.00072	 0.01382	 1.27572	 2316.0	 2316.0	 2316.0	 0.0	 0.0	 1	 -30.0	 30.0;
	94	 83	 0.00078	 0.01502	 1.1381	 2131.0	 2131.0	 2131.0	 0.0	 0.0	 1	 -30.0	 30.0;
	98	 83	 0.00074	 0.01413	 1.06634	 2266.0	 2266.0	 2266.0	 0.0	 0.0	 1	 -30.0	 30.0;
	83	 168	 0.0	 0.0072	 0.0	 4452.0	 4452.0	 4452.0	 0.0	 0.0	 1	 -30.0	 30.0;
	83	 170	 0.0	 0.00864	 0.0	 3710.0	 3710.0	 3710.0	 0.0	 0.0	 1	 -30.0	 30.0;
	83	 172	 0.0	 0.01	 0.0	 3205.0	 3205.0	 3205.0	 0.0	 0.0	 1	 -30.0	 30.0;
	84	 85	 0.0	 0.0072	 0.0	 4452.0	 4452.0	 4452.0	 1.05	 0.0	 1	 -30.0	 30.0;
	99	 84	 0.0	 0.02667	 0.0	 1202.0	 1202.0	 1202.0	 0.0	 0.0	 1	 -30.0	 30.0;
	156	 85	 0.0062	 0.0673	 1.1156	 475.0	 475.0	 475.0	 0.0	 0.0	 1	 -30.0	 30.0;
	88	 86	 0.0006	 0.01036	 1.01456	 3089.0	 3089.0	 3089.0	 0.0	 0.0	 1	 -30.0	 30.0;
	90	 86	 0.00012	 0.00238	 0.21926	 5500.98	 13449.0	 13449.0	 0.0	 0.0	 1	 -30.0	 30.0;
	180	 86	 0.00122	 0.02373	 2.2071	 1349.0	 1349.0	 1349.0	 0.0	 0.0	 1	 -30.0	 30.0;
	87	 88	 0.0	 0.01263	 0.0	 2538.0	 2538.0	 2538.0	 0.0	 0.0	 1	 -30.0	 30.0;
	89	 90	 0.0	 0.00858	 0.0	 3736.0	 3736.0	 3736.0	 0.0	 0.0	 1	 -30.0	 30.0;
	91	 92	 0.0	 0.01263	 0.0	 2538.0	 2538.0	 2538.0	 0.0	 0.0	 1	 -30.0	 30.0;
	92	 93	 0.00074	 0.01428	 1.0822	 2242.0	 2242.0	 2242.0	 0.0	 0.0	 1	 -30.0	 30.0;
	93	 94	 0.0	 0.01263	 0.0	 2538.0	 2538.0	 2538.0	 0.0	 0.0	 1	 -30.0	 30.0;
	95	 96	 0.0	 0.01263	 0.0	 2538.0	 2538.0	 2538.0	 0.0	 0.0	 1	 -30.0	 30.0;
	96	 97	 0.00074	 0.01428	 1.0822	 2242.0	 2242.0	 2242.0	 0.0	 0.0	 1	 -30.0	 30.0;
	97	 98	 0.0	 0.01263	 0.0	 2538.0	 2538.0	 2538.0	 0.0	 0.0	 1	 -30.0	 30.0;
	101	 100	 0.02482	 0.16938	 0.20232	 188.0	 188.0	 188.0	 0.0	 0.0	 1	 -30.0	 30.0;
	100	 117	 0.0148	 0.10101	 0.12066	 314.0	 314.0	 314.0	 0.0	 0.0	 1	 -30.0	 30.0;
	101	 105	 0.01382	 0.09268	 0.1106	 343.0	 343.0	 343.0	 0.0	 0.0	 1	 -30.0	 30.0;
	101	 106	 0.01668	 0.11381	 0.13608	 279.0	 279.0	 279.0	 0.0	 0.0	 1	 -30.0	 30.0;
	101	 113	 0.01113	 0.06678	 0.07286	 474.0	 474.0	 474.0	 0.0	 0.0	 1	 -30.0	 30.0;
	101	 113	 0.0105	 0.0654	 0.0686	 484.0	 484.0	 484.0	 0.0	 0.0	 1	 -30.0	 30.0;
	101	 113	 0.01105	 0.06642	 0.0716	 476.0	 476.0	 476.0	 0.0	 0.0	 1	 -30.0	 30.0;
	101	 117	 0.03903	 0.27403	 0.31072	 116.0	 116.0	 116.0	 0.0	 0.0	 1	 -30.0	 30.0;
	102	 103	 0.0	 0.0098	 0.0	 3271.0	 3271.0	 3271.0	 1.05	 0.0	 1	 -30.0	 30.0;
	104	 102	 0.00079	 0.01937	 1.3285	 1654.0	 1654.0	 1654.0	 0.0	 0.0	 1	 -30.0	 30.0;
	102	 108	 0.00087	 0.02087	 1.4571	 1535.0	 1535.0	 1535.0	 0.0	 0.0	 1	 -30.0	 30.0;
	102	 108	 0.00087	 0.02087	 1.4571	 1535.0	 1535.0	 1535.0	 0.0	 0.0	 1	 -30.0	 30.0;
	107	 104	 0.00083	 0.01985	 0.0	 1614.0	 1614.0	 1614.0	 0.0	 0.0	 1	 -30.0	 30.0;
	134	 104	 0.00093	 0.03644	 1.3895	 880.0	 880.0	 880.0	 0.0	 0.0	 1	 -30.0	 30.0;
	104	 135	 0.00072	 0.016	 1.0879	 2002.0	 2002.0	 2002.0	 0.0	 0.0	 1	 -30.0	 30.0;
	105	 117	 0.03058	 0.2046	 0.24472	 155.0	 155.0	 155.0	 0.0	 0.0	 1	 -30.0	 30.0;
	106	 117	 0.02235	 0.16106	 0.18342	 198.0	 198.0	 198.0	 0.0	 0.0	 1	 -30.0	 30.0;
	107	 108	 0.00153	 0.0147	 0.0	 2169.0	 2169.0	 2169.0	 0.0	 0.0	 1	 -30.0	 30.0;
	110	 107	 0.00053	 0.01297	 0.0	 2469.0	 2469.0	 2469.0	 0.0	 0.0	 1	 -30.0	 30.0;
	109	 108	 0.0	 0.0174	 0.0	 1842.0	 1842.0	 1842.0	 1.119	 0.0	 1	 -30.0	 30.0;
	109	 108	 0.0	 0.0119	 0.0	 2694.0	 2694.0	 2694.0	 1.119	 0.0	 1	 -30.0	 30.0;
	133	 108	 2e-05	 0.01331	 0.0	 2408.0	 2408.0	 2408.0	 0.0	 0.0	 1	 -30.0	 30.0;
	135	 108	 2e-05	 0.00998	 0.0	 3212.0	 3212.0	 3212.0	 0.0	 0.0	 1	 -30.0	 30.0;
	108	 174	 0.0	 0.00935	 0.0	 3428.0	 3428.0	 3428.0	 0.0	 0.0	 1	 -30.0	 30.0;
	108	 176	 0.0	 0.00944	 0.0	 3395.0	 3395.0	 3395.0	 0.0	 0.0	 1	 -30.0	 30.0;
	108	 178	 0.0	 0.00935	 0.0	 3428.0	 3428.0	 3428.0	 0.0	 0.0	 1	 -30.0	 30.0;
	111	 120	 0.0	 0.01	 0.0	 3205.0	 3205.0	 3205.0	 0.0	 0.0	 1	 -30.0	 30.0;
	173	 111	 0.0	 0.01	 0.0	 3205.0	 3205.0	 3205.0	 0.0	 0.0	 1	 -30.0	 30.0;
	112	 113	 0.0	 0.02281	 0.0	 1406.0	 1406.0	 1406.0	 0.9174	 0.0	 1	 -30.0	 30.0;
	113	 114	 0.0001	 0.0174	 0.0	 1842.0	 1842.0	 1842.0	 1.119	 0.0	 1	 -30.0	 30.0;
	114	 124	 2e-05	 0.00998	 0.0	 3212.0	 3212.0	 3212.0	 0.0	 0.0	 1	 -30.0	 30.0;
	114	 126	 2e-05	 0.00998	 0.0	 3212.0	 3212.0	 3212.0	 0.0	 0.0	 1	 -30.0	 30.0;
	169	 114	 0.0	 0.0072	 0.0	 4452.0	 4452.0	 4452.0	 0.0	 0.0	 1	 -30.0	 30.0;
	171	 114	 0.0	 0.0072	 0.0	 4452.0	 4452.0	 4452.0	 0.0	 0.0	 1	 -30.0	 30.0;
	125	 115	 1e-05	 0.00666	 0.0	 4813.0	 4813.0	 4813.0	 0.0	 0.0	 1	 -30.0	 30.0;
	127	 115	 1e-05	 0.00666	 0.0	 4813.0	 4813.0	 4813.0	 0.0	 0.0	 1	 -30.0	 30.0;
	115	 128	 1e-05	 0.0112	 0.0	 2862.0	 2862.0	 2862.0	 0.0	 0.0	 1	 -30.0	 30.0;
	115	 130	 1e-05	 0.0072	 0.0	 4452.0	 4452.0	 4452.0	 0.0	 0.0	 1	 -30.0	 30.0;
	116	 117	 0.0	 0.01815	 0.0	 1766.0	 1766.0	 1766.0	 0.9091	 0.0	 1	 -30.0	 30.0;
	117	 119	 0.0002	 0.0125	 0.0	 2564.0	 2564.0	 2564.0	 1.119	 0.0	 1	 -30.0	 30.0;
	118	 119	 0.0	 0.00448	 0.0	 7154.0	 7154.0	 7154.0	 0.9452	 0.0	 1	 -30.0	 30.0;
	123	 119	 0.0	 0.01	 0.0	 3205.0	 3205.0	 3205.0	 0.0	 0.0	 1	 -30.0	 30.0;
	129	 119	 1e-05	 0.0112	 0.0	 2862.0	 2862.0	 2862.0	 0.0	 0.0	 1	 -30.0	 30.0;
	131	 119	 1e-05	 0.0036	 0.0	 5209.14	 8903.0	 8903.0	 0.0	 0.0	 1	 -30.0	 30.0;
	119	 132	 1e-05	 0.00755	 0.0	 4245.0	 4245.0	 4245.0	 0.0	 0.0	 1	 -30.0	 30.0;
	119	 134	 1e-05	 0.01098	 0.0	 2919.0	 2919.0	 2919.0	 0.0	 0.0	 1	 -30.0	 30.0;
...
];

% INFO    : === Translation Options ===
% INFO    : Load Model:                  from file ./pglib_opf_case179_goc.m.api.sol
% INFO    : Gen Active Capacity Model:   stat
% INFO    : Gen Reactive Capacity Model: al50ag
% INFO    : Gen Active Cost Model:       stat
% INFO    : 
% INFO    : === Load Replacement Notes ===
% INFO    : Bus 2	: Pd=926.77, Qd=-54.77 -> Pd=926.77, Qd=-54.77
% INFO    : Bus 4	: Pd=46.71, Qd=0.0 -> Pd=46.71, Qd=0.00
% INFO    : Bus 5	: Pd=1271.04, Qd=-122.37 -> Pd=1271.04, Qd=-122.37
% INFO    : Bus 6	: Pd=48.57, Qd=0.0 -> Pd=48.57, Qd=0.00
% INFO    : Bus 8	: Pd=113.45, Qd=-54.21 -> Pd=113.45, Qd=-54.21
% INFO    : Bus 9	: Pd=50.0, Qd=0.0 -> Pd=50.00, Qd=0.00
% INFO    : Bus 10	: Pd=67.39, Qd=22.91 -> Pd=171.04, Qd=22.91
% INFO    : Bus 11	: Pd=47.87, Qd=0.0 -> Pd=47.87, Qd=0.00
% INFO    : Bus 12	: Pd=41.43, Qd=65.76 -> Pd=105.15, Qd=65.76
% INFO    : Bus 13	: Pd=48.55, Qd=0.0 -> Pd=48.55, Qd=0.00
% INFO    : Bus 15	: Pd=46.55, Qd=0.0 -> Pd=46.55, Qd=0.00
% INFO    : Bus 16	: Pd=434.68, Qd=215.2 -> Pd=1103.28, Qd=215.20
% INFO    : Bus 17	: Pd=459.25, Qd=4.79 -> Pd=1165.64, Qd=4.79
% INFO    : Bus 18	: Pd=51.79, Qd=0.0 -> Pd=51.79, Qd=0.00
% INFO    : Bus 19	: Pd=327.45, Qd=-64.08 -> Pd=327.45, Qd=-64.08
% INFO    : Bus 30	: Pd=49.3, Qd=0.0 -> Pd=49.30, Qd=0.00
% INFO    : Bus 31	: Pd=2376.39, Qd=1052.35 -> Pd=6031.60, Qd=1052.35
% INFO    : Bus 34	: Pd=1692.19, Qd=703.18 -> Pd=4295.01, Qd=703.18
% INFO    : Bus 35	: Pd=45.09, Qd=0.0 -> Pd=45.09, Qd=0.00
% INFO    : Bus 36	: Pd=51.16, Qd=0.0 -> Pd=51.16, Qd=0.00
% INFO    : Bus 37	: Pd=-843.68, Qd=1045.02 -> Pd=-843.68, Qd=1045.02
% INFO    : Bus 40	: Pd=51.45, Qd=0.0 -> Pd=51.45, Qd=0.00
% INFO    : Bus 41	: Pd=69.79, Qd=28.0 -> Pd=177.14, Qd=28.00
% INFO    : Bus 43	: Pd=49.01, Qd=0.0 -> Pd=49.01, Qd=0.00
% INFO    : Bus 44	: Pd=1098.25, Qd=902.5 -> Pd=2787.51, Qd=902.50
% INFO    : Bus 45	: Pd=52.83, Qd=0.0 -> Pd=52.83, Qd=0.00
% INFO    : Bus 46	: Pd=-35.89, Qd=-17.32 -> Pd=-35.89, Qd=-17.32
% INFO    : Bus 47	: Pd=53.25, Qd=0.0 -> Pd=53.25, Qd=0.00
% INFO    : Bus 48	: Pd=55.04, Qd=24.01 -> Pd=139.70, Qd=24.01
% INFO    : Bus 50	: Pd=172.41, Qd=62.09 -> Pd=437.60, Qd=62.09
% INFO    : Bus 51	: Pd=115.98, Qd=-58.77 -> Pd=115.98, Qd=-58.77
% INFO    : Bus 54	: Pd=74.1, Qd=29.03 -> Pd=188.08, Qd=29.03
% INFO    : Bus 55	: Pd=427.39, Qd=126.16 -> Pd=1084.77, Qd=126.16
% INFO    : Bus 57	: Pd=62.17, Qd=24.03 -> Pd=157.80, Qd=24.03
% INFO    : Bus 58	: Pd=59.47, Qd=25.47 -> Pd=150.94, Qd=25.47
% INFO    : Bus 59	: Pd=480.82, Qd=-6.57 -> Pd=480.82, Qd=-6.57
% INFO    : Bus 60	: Pd=-1459.73, Qd=1687.42 -> Pd=-1459.73, Qd=1687.42
% INFO    : Bus 61	: Pd=185.63, Qd=75.27 -> Pd=471.15, Qd=75.27
% INFO    : Bus 62	: Pd=96.01, Qd=18.56 -> Pd=243.69, Qd=18.56
% INFO    : Bus 63	: Pd=-69.23, Qd=30.32 -> Pd=-69.23, Qd=30.32
% INFO    : Bus 65	: Pd=46.97, Qd=0.0 -> Pd=46.97, Qd=0.00
% INFO    : Bus 66	: Pd=774.37, Qd=298.97 -> Pd=1965.46, Qd=298.97
% INFO    : Bus 67	: Pd=78.5, Qd=31.52 -> Pd=199.24, Qd=31.52
% INFO    : Bus 68	: Pd=-35.37, Qd=174.17 -> Pd=-35.37, Qd=174.17
% INFO    : Bus 69	: Pd=-23.29, Qd=20.73 -> Pd=-23.29, Qd=20.73
% INFO    : Bus 70	: Pd=51.91, Qd=0.0 -> Pd=51.91, Qd=0.00
% INFO    : Bus 71	: Pd=1486.08, Qd=1816.85 -> Pd=3771.87, Qd=1816.85
% INFO    : Bus 73	: Pd=-781.91, Qd=-53.83 -> Pd=-781.91, Qd=-53.83
% INFO    : Bus 75	: Pd=1223.08, Qd=413.7 -> Pd=3104.34, Qd=413.70
% INFO    : Bus 76	: Pd=1617.77, Qd=1164.73 -> Pd=4106.12, Qd=1164.73
% INFO    : Bus 77	: Pd=54.24, Qd=0.0 -> Pd=54.24, Qd=0.00
% INFO    : Bus 78	: Pd=1780.83, Qd=538.1 -> Pd=4519.99, Qd=538.10
% INFO    : Bus 79	: Pd=53.91, Qd=0.0 -> Pd=53.91, Qd=0.00
% INFO    : Bus 80	: Pd=2289.75, Qd=396.38 -> Pd=5811.70, Qd=396.38
% INFO    : Bus 82	: Pd=-30.36, Qd=-92.62 -> Pd=-30.36, Qd=-92.62
% INFO    : Bus 83	: Pd=-185.65, Qd=-127.12 -> Pd=-185.65, Qd=-127.12
% INFO    : Bus 85	: Pd=307.42, Qd=-452.74 -> Pd=307.42, Qd=-452.74
% INFO    : Bus 100	: Pd=-19.81, Qd=21.24 -> Pd=-19.81, Qd=21.24
% INFO    : Bus 101	: Pd=107.66, Qd=-82.5 -> Pd=107.66, Qd=-82.50
% INFO    : Bus 102	: Pd=23.75, Qd=26.25 -> Pd=60.28, Qd=26.25
% INFO    : Bus 103	: Pd=54.62, Qd=0.0 -> Pd=54.62, Qd=0.00
% INFO    : Bus 104	: Pd=167.6, Qd=-8.03 -> Pd=167.60, Qd=-8.03
% INFO    : Bus 105	: Pd=14.28, Qd=-0.11 -> Pd=14.28, Qd=-0.11
% INFO    : Bus 106	: Pd=3.78, Qd=0.0 -> Pd=3.78, Qd=0.00
% INFO    : Bus 107	: Pd=131.26, Qd=13.82 -> Pd=333.16, Qd=13.82
% INFO    : Bus 108	: Pd=28.61, Qd=-310.03 -> Pd=28.61, Qd=-310.03
% INFO    : Bus 109	: Pd=427.13, Qd=35.78 -> Pd=1084.11, Qd=35.78
% INFO    : Bus 110	: Pd=19.35, Qd=21.06 -> Pd=49.11, Qd=21.06
% INFO    : Bus 111	: Pd=-99.3, Qd=63.54 -> Pd=-99.30, Qd=63.54
% INFO    : Bus 112	: Pd=54.11, Qd=0.0 -> Pd=54.11, Qd=0.00
% INFO    : Bus 113	: Pd=75.99, Qd=0.0 -> Pd=75.99, Qd=0.00
% INFO    : Bus 115	: Pd=-0.38, Qd=115.26 -> Pd=-0.38, Qd=115.26
% INFO    : Bus 116	: Pd=51.07, Qd=0.0 -> Pd=51.07, Qd=0.00
% INFO    : Bus 117	: Pd=438.16, Qd=54.83 -> Pd=1112.11, Qd=54.83
% INFO    : Bus 118	: Pd=54.76, Qd=0.0 -> Pd=54.76, Qd=0.00
% INFO    : Bus 119	: Pd=2650.16, Qd=3818.43 -> Pd=6726.47, Qd=3818.43
% INFO    : Bus 136	: Pd=414.72, Qd=17.91 -> Pd=1052.62, Qd=17.91
% INFO    : Bus 137	: Pd=95.26, Qd=17.51 -> Pd=241.78, Qd=17.51
% INFO    : Bus 138	: Pd=46.32, Qd=0.0 -> Pd=46.32, Qd=0.00
% INFO    : Bus 139	: Pd=471.17, Qd=-10.81 -> Pd=471.17, Qd=-10.81
% INFO    : Bus 140	: Pd=48.52, Qd=0.0 -> Pd=48.52, Qd=0.00
% INFO    : Bus 141	: Pd=1730.28, Qd=609.69 -> Pd=4391.69, Qd=609.69
% INFO    : Bus 142	: Pd=107.93, Qd=-26.18 -> Pd=107.93, Qd=-26.18
% INFO    : Bus 143	: Pd=174.36, Qd=60.86 -> Pd=442.55, Qd=60.86
% INFO    : Bus 144	: Pd=45.88, Qd=0.0 -> Pd=45.88, Qd=0.00
% INFO    : Bus 145	: Pd=1540.95, Qd=1238.88 -> Pd=3911.14, Qd=1238.88
% INFO    : Bus 148	: Pd=53.68, Qd=0.0 -> Pd=53.68, Qd=0.00
% INFO    : Bus 149	: Pd=49.94, Qd=0.0 -> Pd=49.94, Qd=0.00
% INFO    : Bus 150	: Pd=1578.86, Qd=75.65 -> Pd=4007.36, Qd=75.65
% INFO    : Bus 151	: Pd=559.23, Qd=78.48 -> Pd=1419.40, Qd=78.48
% INFO    : Bus 152	: Pd=191.17, Qd=45.01 -> Pd=485.22, Qd=45.01
% INFO    : Bus 154	: Pd=511.38, Qd=-10.66 -> Pd=511.38, Qd=-10.66
% INFO    : Bus 155	: Pd=210.22, Qd=74.94 -> Pd=533.57, Qd=74.94
% INFO    : Bus 156	: Pd=16.91, Qd=12.04 -> Pd=42.92, Qd=12.04
% INFO    : Bus 157	: Pd=79.39, Qd=-8.29 -> Pd=79.39, Qd=-8.29
% INFO    : Bus 158	: Pd=53.01, Qd=41.07 -> Pd=134.55, Qd=41.07
% INFO    : Bus 159	: Pd=53.7, Qd=0.0 -> Pd=53.70, Qd=0.00
% INFO    : Bus 160	: Pd=-29.29, Qd=11.72 -> Pd=-29.29, Qd=11.72
% INFO    : Bus 161	: Pd=137.66, Qd=104.12 -> Pd=349.40, Qd=104.12
% INFO    : Bus 162	: Pd=47.79, Qd=0.0 -> Pd=47.79, Qd=0.00
% INFO    : Bus 164	: Pd=15.05, Qd=12.06 -> Pd=38.20, Qd=12.06
% INFO    : Bus 165	: Pd=73.31, Qd=70.0 -> Pd=186.07, Qd=70.00
% INFO    : Bus 166	: Pd=171.78, Qd=-39.78 -> Pd=171.78, Qd=-39.78
% INFO    : Bus 167	: Pd=95.68, Qd=75.76 -> Pd=242.85, Qd=75.76
% INFO    : 
% INFO    : === Generator Setpoint Replacement Notes ===
% INFO    : Gen at bus 4	: Pg=994.085, Qg=-7.94 -> Pg=587.0, Qg=-30.0
% INFO    : Gen at bus 6	: Pg=1084.63, Qg=-30.87 -> Pg=412.0, Qg=-147.0
% INFO    : Gen at bus 9	: Pg=2652.8, Qg=141.81 -> Pg=1037.0, Qg=-481.0
% INFO    : Gen at bus 11	: Pg=2402.61, Qg=-17.94 -> Pg=987.0, Qg=-36.0
% INFO    : Gen at bus 13	: Pg=1929.025, Qg=207.49 -> Pg=1040.0, Qg=-184.0
% INFO    : Gen at bus 15	: Pg=3479.425, Qg=361.045 -> Pg=2587.0, Qg=330.0
% INFO    : Gen at bus 18	: Pg=1305.43, Qg=23.19 -> Pg=802.0, Qg=-80.0
% INFO    : Gen at bus 30	: Pg=6392.915, Qg=11.185 -> Pg=6546.0, Qg=963.0
% INFO    : Gen at bus 35	: Pg=5083.72, Qg=1136.34 -> Pg=4357.0, Qg=924.0
% INFO    : Gen at bus 36	: Pg=2254.335, Qg=129.4 -> Pg=1079.0, Qg=375.0
% INFO    : Gen at bus 40	: Pg=191.725, Qg=48.255 -> Pg=681.0, Qg=136.0
% INFO    : Gen at bus 43	: Pg=400.445, Qg=71.525 -> Pg=857.0, Qg=327.0
% INFO    : Gen at bus 45	: Pg=2010.625, Qg=89.785 -> Pg=2759.0, Qg=724.0
% INFO    : Gen at bus 47	: Pg=152.35, Qg=0.69 -> Pg=169.0, Qg=44.0
% INFO    : Gen at bus 65	: Pg=2932.815, Qg=353.385 -> Pg=2133.0, Qg=219.0
% INFO    : Gen at bus 70	: Pg=1239.795, Qg=-79.99 -> Pg=220.0, Qg=-438.0
% INFO    : Gen at bus 77	: Pg=7403.065, Qg=135.05 -> Pg=6553.0, Qg=3098.0
% INFO    : Gen at bus 79	: Pg=10354.215, Qg=2358.21 -> Pg=11305.0, Qg=2287.0
% INFO    : Gen at bus 103	: Pg=737.535, Qg=-14.145 -> Pg=2504.0, Qg=599.0
% INFO    : Gen at bus 112	: Pg=1328.115, Qg=-16.82 -> Pg=1279.0, Qg=113.0
% INFO    : Gen at bus 116	: Pg=805.425, Qg=-7.445 -> Pg=1590.0, Qg=490.0
% INFO    : Gen at bus 118	: Pg=4482.46, Qg=1027.675 -> Pg=6135.0, Qg=3626.0
% INFO    : Gen at bus 138	: Pg=1178.09, Qg=-18.965 -> Pg=983.0, Qg=-155.0
% INFO    : Gen at bus 140	: Pg=3469.755, Qg=594.35 -> Pg=4882.0, Qg=1606.0
% INFO    : Gen at bus 144	: Pg=1866.725, Qg=262.135 -> Pg=5436.0, Qg=1595.0
% INFO    : Gen at bus 148	: Pg=2041.235, Qg=252.83 -> Pg=1185.0, Qg=139.0
% INFO    : Gen at bus 149	: Pg=2590.31, Qg=-21.69 -> Pg=2769.0, Qg=945.0
% INFO    : Gen at bus 159	: Pg=2214.085, Qg=697.35 -> Pg=1181.0, Qg=-45.0
% INFO    : Gen at bus 162	: Pg=501.625, Qg=-587.665 -> Pg=430.0, Qg=127.0
% INFO    : 
% INFO    : === Generator Reactive Capacity Atleast Setpoint Value Notes ===
% INFO    : Gen at bus 9	: Qg -481.0, Qmin -418.35, Qmax 701.97 -> Qmin -577.2, Qmax 701.97
% INFO    : Gen at bus 43	: Qg 327.0, Qmin -167.99, Qmax 311.04 -> Qmin -392.4, Qmax 392.4
% INFO    : Gen at bus 45	: Qg 724.0, Qmin -586.38, Qmax 765.95 -> Qmin -868.8, Qmax 765.95
% INFO    : Gen at bus 77	: Qg 3098.0, Qmin -2178.05, Qmax 2448.15 -> Qmin -3717.6, Qmax 3717.6
% INFO    : Gen at bus 79	: Qg 2287.0, Qmin -1313.95, Qmax 6030.37 -> Qmin -2744.4, Qmax 6030.37
% INFO    : Gen at bus 103	: Qg 599.0, Qmin -356.23, Qmax 327.94 -> Qmin -718.8, Qmax 718.8
% INFO    : Gen at bus 116	: Qg 490.0, Qmin -289.98, Qmax 275.09 -> Qmin -588.0, Qmax 588.0
% INFO    : Gen at bus 118	: Qg 3626.0, Qmin -680.45, Qmax 2735.8 -> Qmin -4351.2, Qmax 4351.2
% INFO    : Gen at bus 140	: Qg 1606.0, Qmin -961.02, Qmax 2149.72 -> Qmin -1927.2, Qmax 2149.72
% INFO    : Gen at bus 144	: Qg 1595.0, Qmin -332.33, Qmax 856.6 -> Qmin -1914.0, Qmax 1914.0
% INFO    : Gen at bus 149	: Qg 945.0, Qmin -625.55, Qmax 582.17 -> Qmin -1134.0, Qmax 1134.0
% INFO    : 
% INFO    : === Generator Classification Notes ===
% INFO    : NUC    2   -     9.82
% INFO    : COW    23  -    87.52
% INFO    : NG     4   -     2.66
% INFO    : 
% INFO    : === Generator Active Capacity Stat Model Notes ===
% INFO    : Gen at bus 4 - COW	: Pg=587.0, Pmax=1683.12 -> Pmax=1500   samples: 7
% INFO    : Gen at bus 6 - COW	: Pg=412.0, Pmax=1938.18 -> Pmax=1237   samples: 4
% INFO    : Gen at bus 9 - COW	: Pg=1037.0, Pmax=4498.26 -> Pmax=1199   samples: 29
% INFO    : Gen at bus 11 - COW	: Pg=987.0, Pmax=3956.96 -> Pmax=1396   samples: 44
% INFO    : Gen at bus 13 - COW	: Pg=1040.0, Pmax=3299.94 -> Pmax=1264   samples: 1
% WARNING : Failed to find a generator capacity within (2587.0-12935.0) after 100 samples, using percent increase model
% INFO    : Gen at bus 15 - COW	: Pg=2587.0, Pmax=5393.53 -> Pmax=2806   samples: 100
% INFO    : Gen at bus 18 - COW	: Pg=802.0, Pmax=2074.45 -> Pmax=802   samples: 10
% WARNING : Failed to find a generator capacity within (6546.0-32730.0) after 100 samples, using percent increase model
% INFO    : Gen at bus 30 - COW	: Pg=6546.0, Pmax=9757.06 -> Pmax=7101   samples: 100
% WARNING : Failed to find a generator capacity within (4357.0-21785.0) after 100 samples, using percent increase model
% INFO    : Gen at bus 35 - NUC	: Pg=4357.0, Pmax=8718.16 -> Pmax=4609   samples: 100
% INFO    : Gen at bus 36 - COW	: Pg=1079.0, Pmax=3493.62 -> Pmax=1184   samples: 12
% WARNING : Failed to find a generator capacity within (681.0-3405.0) after 100 samples, using percent increase model
% INFO    : Gen at bus 40 - NG	: Pg=681.0, Pmax=362.6 -> Pmax=769   samples: 100
% WARNING : Failed to find a generator capacity within (857.0-4285.0) after 100 samples, using percent increase model
% INFO    : Gen at bus 43 - NG	: Pg=857.0, Pmax=673.96 -> Pmax=968   samples: 100
% WARNING : Failed to find a generator capacity within (2759.0-13795.0) after 100 samples, using percent increase model
% INFO    : Gen at bus 45 - NUC	: Pg=2759.0, Pmax=3528.4 -> Pmax=2919   samples: 100
% INFO    : Gen at bus 47 - NG	: Pg=169.0, Pmax=233.68 -> Pmax=182   samples: 4
% WARNING : Failed to find a generator capacity within (2133.0-10665.0) after 100 samples, using percent increase model
% INFO    : Gen at bus 65 - COW	: Pg=2133.0, Pmax=5459.92 -> Pmax=2313   samples: 100
% INFO    : Gen at bus 70 - NG	: Pg=220.0, Pmax=2377.38 -> Pmax=238   samples: 12
% WARNING : Failed to find a generator capacity within (6553.0-32765.0) after 100 samples, using percent increase model
% INFO    : Gen at bus 77 - COW	: Pg=6553.0, Pmax=11165.05 -> Pmax=7108   samples: 100
% WARNING : Failed to find a generator capacity within (11305.0-56525.0) after 100 samples, using percent increase model
% INFO    : Gen at bus 79 - COW	: Pg=11305.0, Pmax=18208.22 -> Pmax=12263   samples: 100
% WARNING : Failed to find a generator capacity within (2504.0-12520.0) after 100 samples, using percent increase model
% INFO    : Gen at bus 103 - COW	: Pg=2504.0, Pmax=1359.89 -> Pmax=2716   samples: 100
% WARNING : Failed to find a generator capacity within (1279.0-6395.0) after 100 samples, using percent increase model
% INFO    : Gen at bus 112 - COW	: Pg=1279.0, Pmax=2247.11 -> Pmax=1387   samples: 100
% INFO    : Gen at bus 116 - COW	: Pg=1590.0, Pmax=1298.69 -> Pmax=1706   samples: 24
% WARNING : Failed to find a generator capacity within (6135.0-30675.0) after 100 samples, using percent increase model
% INFO    : Gen at bus 118 - COW	: Pg=6135.0, Pmax=7386.77 -> Pmax=6655   samples: 100
% INFO    : Gen at bus 138 - COW	: Pg=983.0, Pmax=2043.61 -> Pmax=1305   samples: 52
% WARNING : Failed to find a generator capacity within (4882.0-24410.0) after 100 samples, using percent increase model
% INFO    : Gen at bus 140 - COW	: Pg=4882.0, Pmax=6145.22 -> Pmax=5295   samples: 100
% WARNING : Failed to find a generator capacity within (5436.0-27180.0) after 100 samples, using percent increase model
% INFO    : Gen at bus 144 - COW	: Pg=5436.0, Pmax=3135.12 -> Pmax=5896   samples: 100
% INFO    : Gen at bus 148 - COW	: Pg=1185.0, Pmax=3402.54 -> Pmax=1217   samples: 28
% WARNING : Failed to find a generator capacity within (2769.0-13845.0) after 100 samples, using percent increase model
% INFO    : Gen at bus 149 - COW	: Pg=2769.0, Pmax=4251.85 -> Pmax=3003   samples: 100
% INFO    : Gen at bus 159 - COW	: Pg=1181.0, Pmax=3483.05 -> Pmax=1274   samples: 46
% INFO    : Gen at bus 162 - COW	: Pg=430.0, Pmax=839.66 -> Pmax=564   samples: 3
% INFO    : 
% INFO    : === Generator Active Capacity LB Model Notes ===
% INFO    : Gen at bus 4	: Pmin=305.05 -> Pmin=152.525 
% INFO    : Gen at bus 6	: Pmin=231.08 -> Pmin=115.54 
% INFO    : Gen at bus 9	: Pmin=807.34 -> Pmin=403.67 
% INFO    : Gen at bus 11	: Pmin=848.26 -> Pmin=424.13 
% INFO    : Gen at bus 13	: Pmin=558.11 -> Pmin=279.055 
% INFO    : Gen at bus 15	: Pmin=1565.32 -> Pmin=782.66 
% INFO    : Gen at bus 18	: Pmin=536.41 -> Pmin=268.205 
% INFO    : Gen at bus 30	: Pmin=3028.77 -> Pmin=1514.385 
% INFO    : Gen at bus 35	: Pmin=1449.28 -> Pmin=724.64 
% INFO    : Gen at bus 36	: Pmin=1015.05 -> Pmin=507.525 
% INFO    : Gen at bus 40	: Pmin=20.85 -> Pmin=10.425 
% INFO    : Gen at bus 43	: Pmin=126.93 -> Pmin=63.465 
% INFO    : Gen at bus 45	: Pmin=492.85 -> Pmin=246.425 
% INFO    : Gen at bus 47	: Pmin=71.02 -> Pmin=35.51 
% INFO    : Gen at bus 65	: Pmin=405.71 -> Pmin=202.855 
% INFO    : Gen at bus 70	: Pmin=102.21 -> Pmin=51.105 
% INFO    : Gen at bus 77	: Pmin=3641.08 -> Pmin=1820.54 
% INFO    : Gen at bus 79	: Pmin=2500.21 -> Pmin=1250.105 
% INFO    : Gen at bus 103	: Pmin=115.18 -> Pmin=57.59 
% INFO    : Gen at bus 112	: Pmin=409.12 -> Pmin=204.56 
% INFO    : Gen at bus 116	: Pmin=312.16 -> Pmin=156.08 
% INFO    : Gen at bus 118	: Pmin=1578.15 -> Pmin=789.075 
% INFO    : Gen at bus 138	: Pmin=312.57 -> Pmin=156.285 
% INFO    : Gen at bus 140	: Pmin=794.29 -> Pmin=397.145 
% INFO    : Gen at bus 144	: Pmin=598.33 -> Pmin=299.165 
% INFO    : Gen at bus 148	: Pmin=679.93 -> Pmin=339.965 
% INFO    : Gen at bus 149	: Pmin=928.77 -> Pmin=464.385 
% INFO    : Gen at bus 159	: Pmin=945.12 -> Pmin=472.56 
% INFO    : Gen at bus 162	: Pmin=163.59 -> Pmin=81.795 
% INFO    : 
% INFO    : === Generator Reactive Capacity Atleast Max 50 Percent Active Model Notes ===
% INFO    : Gen at bus 4 - COW	: Pmax 1500.0, Qmin -336.16, Qmax 320.28 -> Qmin -750.0, Qmax 750.0
% INFO    : Gen at bus 6 - COW	: Pmax 1237.0, Qmin -440.57, Qmax 378.83 -> Qmin -619.0, Qmax 619.0
% INFO    : Gen at bus 9 - COW	: Pmax 1199.0, Qmin -577.2, Qmax 701.97 -> Qmin -600.0, Qmax 701.97
% INFO    : Gen at bus 13 - COW	: Pmax 1264.0, Qmin -282.23, Qmax 697.21 -> Qmin -632.0, Qmax 697.21
% INFO    : Gen at bus 15 - COW	: Pmax 2806.0, Qmin -683.19, Qmax 1405.28 -> Qmin -1403.0, Qmax 1405.28
% INFO    : Gen at bus 18 - COW	: Pmax 802.0, Qmin -272.62, Qmax 319.0 -> Qmin -401.0, Qmax 401.0
% INFO    : Gen at bus 36 - COW	: Pmax 1184.0, Qmin -394.12, Qmax 652.92 -> Qmin -592.0, Qmax 652.92
% INFO    : Gen at bus 40 - NG	: Pmax 769.0, Qmin -150.68, Qmax 247.19 -> Qmin -385.0, Qmax 385.0
% INFO    : Gen at bus 43 - NG	: Pmax 968.0, Qmin -392.4, Qmax 392.4 -> Qmin -484.0, Qmax 484.0
% INFO    : Gen at bus 45 - NUC	: Pmax 2919.0, Qmin -868.8, Qmax 765.95 -> Qmin -1460.0, Qmax 1460.0
% INFO    : Gen at bus 65 - COW	: Pmax 2313.0, Qmin -846.79, Qmax 1553.56 -> Qmin -1157.0, Qmax 1553.56
% INFO    : Gen at bus 79 - COW	: Pmax 12263.0, Qmin -2744.4, Qmax 6030.37 -> Qmin -6132.0, Qmax 6132.0
% INFO    : Gen at bus 103 - COW	: Pmax 2716.0, Qmin -718.8, Qmax 718.8 -> Qmin -1358.0, Qmax 1358.0
% INFO    : Gen at bus 112 - COW	: Pmax 1387.0, Qmin -454.69, Qmax 421.05 -> Qmin -694.0, Qmax 694.0
% INFO    : Gen at bus 116 - COW	: Pmax 1706.0, Qmin -588.0, Qmax 588.0 -> Qmin -853.0, Qmax 853.0
% INFO    : Gen at bus 138 - COW	: Pmax 1305.0, Qmin -345.02, Qmax 307.09 -> Qmin -653.0, Qmax 653.0
% INFO    : Gen at bus 140 - COW	: Pmax 5295.0, Qmin -1927.2, Qmax 2149.72 -> Qmin -2648.0, Qmax 2648.0
% INFO    : Gen at bus 144 - COW	: Pmax 5896.0, Qmin -1914.0, Qmax 1914.0 -> Qmin -2948.0, Qmax 2948.0
% INFO    : Gen at bus 148 - COW	: Pmax 1217.0, Qmin -240.89, Qmax 746.55 -> Qmin -609.0, Qmax 746.55
% INFO    : Gen at bus 149 - COW	: Pmax 3003.0, Qmin -1134.0, Qmax 1134.0 -> Qmin -1502.0, Qmax 1502.0
% INFO    : 
% INFO    : === Generator Setpoint Replacement Notes ===
% INFO    : Gen at bus 4	: Pg=587.0, Qg=-30.0 -> Pg=826.2625, Qg=0.0
% INFO    : Gen at bus 4	: Vg=1.003 -> Vg=1.003
% INFO    : Gen at bus 6	: Pg=412.0, Qg=-147.0 -> Pg=676.27, Qg=0.0
% INFO    : Gen at bus 6	: Vg=1.003 -> Vg=1.003
% INFO    : Gen at bus 9	: Pg=1037.0, Qg=-481.0 -> Pg=801.335, Qg=50.985
% INFO    : Gen at bus 9	: Vg=1.003 -> Vg=1.003
% INFO    : Gen at bus 11	: Pg=987.0, Qg=-36.0 -> Pg=910.065, Qg=-17.94
% INFO    : Gen at bus 11	: Vg=1.003 -> Vg=1.003
% INFO    : Gen at bus 13	: Pg=1040.0, Qg=-184.0 -> Pg=771.5275, Qg=32.605
% INFO    : Gen at bus 13	: Vg=1.003 -> Vg=1.003
% INFO    : Gen at bus 15	: Pg=2587.0, Qg=330.0 -> Pg=1794.33, Qg=1.14
% INFO    : Gen at bus 15	: Vg=1.003 -> Vg=1.003
% INFO    : Gen at bus 18	: Pg=802.0, Qg=-80.0 -> Pg=535.1025, Qg=0.0
% INFO    : Gen at bus 18	: Vg=1.003 -> Vg=1.003
% INFO    : Gen at bus 30	: Pg=6546.0, Qg=963.0 -> Pg=4307.6925, Qg=11.185
% INFO    : Gen at bus 30	: Vg=1.003 -> Vg=1.003
% INFO    : Gen at bus 35	: Pg=4357.0, Qg=924.0 -> Pg=2666.82, Qg=1136.34
% INFO    : Gen at bus 35	: Vg=1.003 -> Vg=1.003
% INFO    : Gen at bus 36	: Pg=1079.0, Qg=375.0 -> Pg=845.7625, Qg=30.46
% INFO    : Gen at bus 36	: Vg=1.003 -> Vg=1.003
% INFO    : Gen at bus 40	: Pg=681.0, Qg=136.0 -> Pg=389.7125, Qg=0.0
% INFO    : Gen at bus 40	: Vg=1.003 -> Vg=1.003
% INFO    : Gen at bus 43	: Pg=857.0, Qg=327.0 -> Pg=515.7325, Qg=0.0
% INFO    : Gen at bus 43	: Vg=1.003 -> Vg=1.003
% INFO    : Gen at bus 45	: Pg=2759.0, Qg=724.0 -> Pg=1582.7125, Qg=0.0
% INFO    : Gen at bus 45	: Vg=1.003 -> Vg=1.003
% INFO    : Gen at bus 47	: Pg=169.0, Qg=44.0 -> Pg=108.755, Qg=0.69
% INFO    : Gen at bus 47	: Vg=1.003 -> Vg=1.003
...